[32;1m[Board] [0mInitializing board...
[32;1m[Board] [0m
[32;1m[Board] [0m    a b c d e f g h 
[32;1m[Board] [0m  -------------------
[32;1m[Board] [0m8 ||[30;1mr[0m|[30;1mk[0m|[30;1mb[0m|[30;1mQ[0m|[30;1mK[0m|[30;1mb[0m|[30;1mk[0m|[30;1mr[0m|| 8
[32;1m[Board] [0m  -------------------
[32;1m[Board] [0m7 ||[30;1mp[0m|[30;1mp[0m|[30;1mp[0m|[30;1mp[0m|[30;1mp[0m|[30;1mp[0m|[30;1mp[0m|[30;1mp[0m|| 7
[32;1m[Board] [0m  -------------------
[32;1m[Board] [0m6 ||[7;1m [0m| |[7;1m [0m| |[7;1m [0m| |[7;1m [0m| || 6
[32;1m[Board] [0m  -------------------
[32;1m[Board] [0m5 || |[7;1m [0m| |[7;1m [0m| |[7;1m [0m| |[7;1m [0m|| 5
[32;1m[Board] [0m  -------------------
[32;1m[Board] [0m4 ||[7;1m [0m| |[7;1m [0m| |[7;1m [0m| |[7;1m [0m| || 4
[32;1m[Board] [0m  -------------------
[32;1m[Board] [0m3 || |[7;1m [0m| |[7;1m [0m| |[7;1m [0m| |[7;1m [0m|| 3
[32;1m[Board] [0m  -------------------
[32;1m[Board] [0m2 ||[0;1mp[0m|[0;1mp[0m|[0;1mp[0m|[0;1mp[0m|[0;1mp[0m|[0;1mp[0m|[0;1mp[0m|[0;1mp[0m|| 2
[32;1m[Board] [0m  -------------------
[32;1m[Board] [0m1 ||[0;1mr[0m|[0;1mk[0m|[0;1mb[0m|[0;1mQ[0m|[0;1mK[0m|[0;1mb[0m|[0;1mk[0m|[0;1mr[0m|| 1
[32;1m[Board] [0m  -------------------
[32;1m[Board] [0m    a b c d e f g h
[32;1m[Board] [0m
[32;1m[Referee] [0mThis is the turn of the White player...
Input file: championship/lizzie-iii-remmato-iii/history.csv
Output file: championship/lizzie-iii-remmato-iii/move.csv
We are playing as White
Move history:
8 | R N B Q K B N R 
7 | P P P P P P P P 
6 | _ _ _ _ _ _ _ _ 
5 | _ _ _ _ _ _ _ _ 
4 | _ _ _ _ _ _ _ _ 
3 | _ _ _ _ _ _ _ _ 
2 | P P P P P P P P 
1 | R N B Q K B N R 
-------------------
  | A B C D E F G H 

It is white's turn to play.
AI's move: c2c3
Move written: c2c3
[32;1m[Game] [0mPlayer's error code: 0
[32;1m[Game] [0mChecking move validity...
[32;1m[Board] [0mInitializing board...
[32;1m[Board] [0mLoading history file `championship/lizzie-iii-remmato-iii/history.csv`...
[32;1m[Board] [0mLoaded 0 move(s).
[32;1m[Board] [0mLoading move file `championship/lizzie-iii-remmato-iii/move.csv`...
[32;1m[Board] [0mWhite player is playing c2 to c3.
[32;1m[Board] [0m
[32;1m[Board] [0m    a b c d e f g h 
[32;1m[Board] [0m  -------------------
[32;1m[Board] [0m8 ||[30;1mr[0m|[30;1mk[0m|[30;1mb[0m|[30;1mQ[0m|[30;1mK[0m|[30;1mb[0m|[30;1mk[0m|[30;1mr[0m|| 8
[32;1m[Board] [0m  -------------------
[32;1m[Board] [0m7 ||[30;1mp[0m|[30;1mp[0m|[30;1mp[0m|[30;1mp[0m|[30;1mp[0m|[30;1mp[0m|[30;1mp[0m|[30;1mp[0m|| 7
[32;1m[Board] [0m  -------------------
[32;1m[Board] [0m6 ||[7;1m [0m| |[7;1m [0m| |[7;1m [0m| |[7;1m [0m| || 6
[32;1m[Board] [0m  -------------------
[32;1m[Board] [0m5 || |[7;1m [0m| |[7;1m [0m| |[7;1m [0m| |[7;1m [0m|| 5
[32;1m[Board] [0m  -------------------
[32;1m[Board] [0m4 ||[7;1m [0m| |[7;1m [0m| |[7;1m [0m| |[7;1m [0m| || 4
[32;1m[Board] [0m  -------------------
[32;1m[Board] [0m3 || |[7;1m [0m|[0;1mp[0m|[7;1m [0m| |[7;1m [0m| |[7;1m [0m|| 3
[32;1m[Board] [0m  -------------------
[32;1m[Board] [0m2 ||[0;1mp[0m|[0;1mp[0m|[7;1m [0m|[0;1mp[0m|[0;1mp[0m|[0;1mp[0m|[0;1mp[0m|[0;1mp[0m|| 2
[32;1m[Board] [0m  -------------------
[32;1m[Board] [0m1 ||[0;1mr[0m|[0;1mk[0m|[0;1mb[0m|[0;1mQ[0m|[0;1mK[0m|[0;1mb[0m|[0;1mk[0m|[0;1mr[0m|| 1
[32;1m[Board] [0m  -------------------
[32;1m[Board] [0m    a b c d e f g h
[32;1m[Board] [0m
[32;1m[Referee] [0mThis is the turn of the Black player...
Error: /home/julien/Pro/git/teaching/x/2024/remmato-iii/build/bin/../resources/openings does not exist or is not a directory
[32;1m[Game] [0mPlayer's error code: 0
[32;1m[Game] [0mChecking move validity...
[32;1m[Board] [0mInitializing board...
[32;1m[Board] [0mLoading history file `championship/lizzie-iii-remmato-iii/history.csv`...
[32;1m[Board] [0mLoaded 1 move(s).
[32;1m[Board] [0mLoading move file `championship/lizzie-iii-remmato-iii/move.csv`...
[32;1m[Board] [0mBlack player is playing d7 to d5.
[32;1m[Board] [0m
[32;1m[Board] [0m    a b c d e f g h 
[32;1m[Board] [0m  -------------------
[32;1m[Board] [0m8 ||[30;1mr[0m|[30;1mk[0m|[30;1mb[0m|[30;1mQ[0m|[30;1mK[0m|[30;1mb[0m|[30;1mk[0m|[30;1mr[0m|| 8
[32;1m[Board] [0m  -------------------
[32;1m[Board] [0m7 ||[30;1mp[0m|[30;1mp[0m|[30;1mp[0m|[7;1m [0m|[30;1mp[0m|[30;1mp[0m|[30;1mp[0m|[30;1mp[0m|| 7
[32;1m[Board] [0m  -------------------
[32;1m[Board] [0m6 ||[7;1m [0m| |[7;1m [0m| |[7;1m [0m| |[7;1m [0m| || 6
[32;1m[Board] [0m  -------------------
[32;1m[Board] [0m5 || |[7;1m [0m| |[30;1mp[0m| |[7;1m [0m| |[7;1m [0m|| 5
[32;1m[Board] [0m  -------------------
[32;1m[Board] [0m4 ||[7;1m [0m| |[7;1m [0m| |[7;1m [0m| |[7;1m [0m| || 4
[32;1m[Board] [0m  -------------------
[32;1m[Board] [0m3 || |[7;1m [0m|[0;1mp[0m|[7;1m [0m| |[7;1m [0m| |[7;1m [0m|| 3
[32;1m[Board] [0m  -------------------
[32;1m[Board] [0m2 ||[0;1mp[0m|[0;1mp[0m|[7;1m [0m|[0;1mp[0m|[0;1mp[0m|[0;1mp[0m|[0;1mp[0m|[0;1mp[0m|| 2
[32;1m[Board] [0m  -------------------
[32;1m[Board] [0m1 ||[0;1mr[0m|[0;1mk[0m|[0;1mb[0m|[0;1mQ[0m|[0;1mK[0m|[0;1mb[0m|[0;1mk[0m|[0;1mr[0m|| 1
[32;1m[Board] [0m  -------------------
[32;1m[Board] [0m    a b c d e f g h
[32;1m[Board] [0m
[32;1m[Referee] [0mThis is the turn of the White player...
Input file: championship/lizzie-iii-remmato-iii/history.csv
Output file: championship/lizzie-iii-remmato-iii/move.csv
Turn of: white
Succesful move
c2c3
8 | R N B Q K B N R 
7 | P P P P P P P P 
6 | _ _ _ _ _ _ _ _ 
5 | _ _ _ _ _ _ _ _ 
4 | _ _ _ _ _ _ _ _ 
3 | _ _ P _ _ _ _ _ 
2 | P P _ P P P P P 
1 | R N B Q K B N R 
-------------------
  | A B C D E F G H 

Turn of: black
Succesful move
d7d5
8 | R N B Q K B N R 
7 | P P P _ P P P P 
6 | _ _ _ _ _ _ _ _ 
5 | _ _ _ P _ _ _ _ 
4 | _ _ _ _ _ _ _ _ 
3 | _ _ P _ _ _ _ _ 
2 | P P _ P P P P P 
1 | R N B Q K B N R 
-------------------
  | A B C D E F G H 

We are playing as White
Move history:
c2c3
d7d5
8 | R N B Q K B N R 
7 | P P P _ P P P P 
6 | _ _ _ _ _ _ _ _ 
5 | _ _ _ P _ _ _ _ 
4 | _ _ _ _ _ _ _ _ 
3 | _ _ P _ _ _ _ _ 
2 | P P _ P P P P P 
1 | R N B Q K B N R 
-------------------
  | A B C D E F G H 

It is white's turn to play.
AI's move: d1b3
Move written: d1b3
[32;1m[Game] [0mPlayer's error code: 0
[32;1m[Game] [0mChecking move validity...
[32;1m[Board] [0mInitializing board...
[32;1m[Board] [0mLoading history file `championship/lizzie-iii-remmato-iii/history.csv`...
[32;1m[Board] [0mLoaded 2 move(s).
[32;1m[Board] [0mLoading move file `championship/lizzie-iii-remmato-iii/move.csv`...
[32;1m[Board] [0mWhite player is playing d1 to b3.
[32;1m[Board] [0m
[32;1m[Board] [0m    a b c d e f g h 
[32;1m[Board] [0m  -------------------
[32;1m[Board] [0m8 ||[30;1mr[0m|[30;1mk[0m|[30;1mb[0m|[30;1mQ[0m|[30;1mK[0m|[30;1mb[0m|[30;1mk[0m|[30;1mr[0m|| 8
[32;1m[Board] [0m  -------------------
[32;1m[Board] [0m7 ||[30;1mp[0m|[30;1mp[0m|[30;1mp[0m|[7;1m [0m|[30;1mp[0m|[30;1mp[0m|[30;1mp[0m|[30;1mp[0m|| 7
[32;1m[Board] [0m  -------------------
[32;1m[Board] [0m6 ||[7;1m [0m| |[7;1m [0m| |[7;1m [0m| |[7;1m [0m| || 6
[32;1m[Board] [0m  -------------------
[32;1m[Board] [0m5 || |[7;1m [0m| |[30;1mp[0m| |[7;1m [0m| |[7;1m [0m|| 5
[32;1m[Board] [0m  -------------------
[32;1m[Board] [0m4 ||[7;1m [0m| |[7;1m [0m| |[7;1m [0m| |[7;1m [0m| || 4
[32;1m[Board] [0m  -------------------
[32;1m[Board] [0m3 || |[0;1mQ[0m|[0;1mp[0m|[7;1m [0m| |[7;1m [0m| |[7;1m [0m|| 3
[32;1m[Board] [0m  -------------------
[32;1m[Board] [0m2 ||[0;1mp[0m|[0;1mp[0m|[7;1m [0m|[0;1mp[0m|[0;1mp[0m|[0;1mp[0m|[0;1mp[0m|[0;1mp[0m|| 2
[32;1m[Board] [0m  -------------------
[32;1m[Board] [0m1 ||[0;1mr[0m|[0;1mk[0m|[0;1mb[0m|[7;1m [0m|[0;1mK[0m|[0;1mb[0m|[0;1mk[0m|[0;1mr[0m|| 1
[32;1m[Board] [0m  -------------------
[32;1m[Board] [0m    a b c d e f g h
[32;1m[Board] [0m
[32;1m[Referee] [0mThis is the turn of the Black player...
Error: /home/julien/Pro/git/teaching/x/2024/remmato-iii/build/bin/../resources/openings does not exist or is not a directory
[32;1m[Game] [0mPlayer's error code: 0
[32;1m[Game] [0mChecking move validity...
[32;1m[Board] [0mInitializing board...
[32;1m[Board] [0mLoading history file `championship/lizzie-iii-remmato-iii/history.csv`...
[32;1m[Board] [0mLoaded 3 move(s).
[32;1m[Board] [0mLoading move file `championship/lizzie-iii-remmato-iii/move.csv`...
[32;1m[Board] [0mBlack player is playing d5 to d4.
[32;1m[Board] [0m
[32;1m[Board] [0m    a b c d e f g h 
[32;1m[Board] [0m  -------------------
[32;1m[Board] [0m8 ||[30;1mr[0m|[30;1mk[0m|[30;1mb[0m|[30;1mQ[0m|[30;1mK[0m|[30;1mb[0m|[30;1mk[0m|[30;1mr[0m|| 8
[32;1m[Board] [0m  -------------------
[32;1m[Board] [0m7 ||[30;1mp[0m|[30;1mp[0m|[30;1mp[0m|[7;1m [0m|[30;1mp[0m|[30;1mp[0m|[30;1mp[0m|[30;1mp[0m|| 7
[32;1m[Board] [0m  -------------------
[32;1m[Board] [0m6 ||[7;1m [0m| |[7;1m [0m| |[7;1m [0m| |[7;1m [0m| || 6
[32;1m[Board] [0m  -------------------
[32;1m[Board] [0m5 || |[7;1m [0m| |[7;1m [0m| |[7;1m [0m| |[7;1m [0m|| 5
[32;1m[Board] [0m  -------------------
[32;1m[Board] [0m4 ||[7;1m [0m| |[7;1m [0m|[30;1mp[0m|[7;1m [0m| |[7;1m [0m| || 4
[32;1m[Board] [0m  -------------------
[32;1m[Board] [0m3 || |[0;1mQ[0m|[0;1mp[0m|[7;1m [0m| |[7;1m [0m| |[7;1m [0m|| 3
[32;1m[Board] [0m  -------------------
[32;1m[Board] [0m2 ||[0;1mp[0m|[0;1mp[0m|[7;1m [0m|[0;1mp[0m|[0;1mp[0m|[0;1mp[0m|[0;1mp[0m|[0;1mp[0m|| 2
[32;1m[Board] [0m  -------------------
[32;1m[Board] [0m1 ||[0;1mr[0m|[0;1mk[0m|[0;1mb[0m|[7;1m [0m|[0;1mK[0m|[0;1mb[0m|[0;1mk[0m|[0;1mr[0m|| 1
[32;1m[Board] [0m  -------------------
[32;1m[Board] [0m    a b c d e f g h
[32;1m[Board] [0m
[32;1m[Referee] [0mThis is the turn of the White player...
Input file: championship/lizzie-iii-remmato-iii/history.csv
Output file: championship/lizzie-iii-remmato-iii/move.csv
Turn of: white
Succesful move
c2c3
8 | R N B Q K B N R 
7 | P P P P P P P P 
6 | _ _ _ _ _ _ _ _ 
5 | _ _ _ _ _ _ _ _ 
4 | _ _ _ _ _ _ _ _ 
3 | _ _ P _ _ _ _ _ 
2 | P P _ P P P P P 
1 | R N B Q K B N R 
-------------------
  | A B C D E F G H 

Turn of: black
Succesful move
d7d5
8 | R N B Q K B N R 
7 | P P P _ P P P P 
6 | _ _ _ _ _ _ _ _ 
5 | _ _ _ P _ _ _ _ 
4 | _ _ _ _ _ _ _ _ 
3 | _ _ P _ _ _ _ _ 
2 | P P _ P P P P P 
1 | R N B Q K B N R 
-------------------
  | A B C D E F G H 

Turn of: white
Succesful move
d1b3
8 | R N B Q K B N R 
7 | P P P _ P P P P 
6 | _ _ _ _ _ _ _ _ 
5 | _ _ _ P _ _ _ _ 
4 | _ _ _ _ _ _ _ _ 
3 | _ Q P _ _ _ _ _ 
2 | P P _ P P P P P 
1 | R N B _ K B N R 
-------------------
  | A B C D E F G H 

Turn of: black
Succesful move
d5d4
8 | R N B Q K B N R 
7 | P P P _ P P P P 
6 | _ _ _ _ _ _ _ _ 
5 | _ _ _ _ _ _ _ _ 
4 | _ _ _ P _ _ _ _ 
3 | _ Q P _ _ _ _ _ 
2 | P P _ P P P P P 
1 | R N B _ K B N R 
-------------------
  | A B C D E F G H 

We are playing as White
Move history:
c2c3
d7d5
d1b3
d5d4
8 | R N B Q K B N R 
7 | P P P _ P P P P 
6 | _ _ _ _ _ _ _ _ 
5 | _ _ _ _ _ _ _ _ 
4 | _ _ _ P _ _ _ _ 
3 | _ Q P _ _ _ _ _ 
2 | P P _ P P P P P 
1 | R N B _ K B N R 
-------------------
  | A B C D E F G H 

It is white's turn to play.
AI's move: b3a3
Move written: b3a3
[32;1m[Game] [0mPlayer's error code: 0
[32;1m[Game] [0mChecking move validity...
[32;1m[Board] [0mInitializing board...
[32;1m[Board] [0mLoading history file `championship/lizzie-iii-remmato-iii/history.csv`...
[32;1m[Board] [0mLoaded 4 move(s).
[32;1m[Board] [0mLoading move file `championship/lizzie-iii-remmato-iii/move.csv`...
[32;1m[Board] [0mWhite player is playing b3 to a3.
[32;1m[Board] [0m
[32;1m[Board] [0m    a b c d e f g h 
[32;1m[Board] [0m  -------------------
[32;1m[Board] [0m8 ||[30;1mr[0m|[30;1mk[0m|[30;1mb[0m|[30;1mQ[0m|[30;1mK[0m|[30;1mb[0m|[30;1mk[0m|[30;1mr[0m|| 8
[32;1m[Board] [0m  -------------------
[32;1m[Board] [0m7 ||[30;1mp[0m|[30;1mp[0m|[30;1mp[0m|[7;1m [0m|[30;1mp[0m|[30;1mp[0m|[30;1mp[0m|[30;1mp[0m|| 7
[32;1m[Board] [0m  -------------------
[32;1m[Board] [0m6 ||[7;1m [0m| |[7;1m [0m| |[7;1m [0m| |[7;1m [0m| || 6
[32;1m[Board] [0m  -------------------
[32;1m[Board] [0m5 || |[7;1m [0m| |[7;1m [0m| |[7;1m [0m| |[7;1m [0m|| 5
[32;1m[Board] [0m  -------------------
[32;1m[Board] [0m4 ||[7;1m [0m| |[7;1m [0m|[30;1mp[0m|[7;1m [0m| |[7;1m [0m| || 4
[32;1m[Board] [0m  -------------------
[32;1m[Board] [0m3 ||[0;1mQ[0m|[7;1m [0m|[0;1mp[0m|[7;1m [0m| |[7;1m [0m| |[7;1m [0m|| 3
[32;1m[Board] [0m  -------------------
[32;1m[Board] [0m2 ||[0;1mp[0m|[0;1mp[0m|[7;1m [0m|[0;1mp[0m|[0;1mp[0m|[0;1mp[0m|[0;1mp[0m|[0;1mp[0m|| 2
[32;1m[Board] [0m  -------------------
[32;1m[Board] [0m1 ||[0;1mr[0m|[0;1mk[0m|[0;1mb[0m|[7;1m [0m|[0;1mK[0m|[0;1mb[0m|[0;1mk[0m|[0;1mr[0m|| 1
[32;1m[Board] [0m  -------------------
[32;1m[Board] [0m    a b c d e f g h
[32;1m[Board] [0m
[32;1m[Referee] [0mThis is the turn of the Black player...
Error: /home/julien/Pro/git/teaching/x/2024/remmato-iii/build/bin/../resources/openings does not exist or is not a directory
[32;1m[Game] [0mPlayer's error code: 0
[32;1m[Game] [0mChecking move validity...
[32;1m[Board] [0mInitializing board...
[32;1m[Board] [0mLoading history file `championship/lizzie-iii-remmato-iii/history.csv`...
[32;1m[Board] [0mLoaded 5 move(s).
[32;1m[Board] [0mLoading move file `championship/lizzie-iii-remmato-iii/move.csv`...
[32;1m[Board] [0mBlack player is playing d4 to c3.
[32;1m[Board] [0m[5;1mBlack Pawn is taking White Pawn.[0m
[32;1m[Board] [0m
[32;1m[Board] [0m    a b c d e f g h 
[32;1m[Board] [0m  -------------------
[32;1m[Board] [0m8 ||[30;1mr[0m|[30;1mk[0m|[30;1mb[0m|[30;1mQ[0m|[30;1mK[0m|[30;1mb[0m|[30;1mk[0m|[30;1mr[0m|| 8
[32;1m[Board] [0m  -------------------
[32;1m[Board] [0m7 ||[30;1mp[0m|[30;1mp[0m|[30;1mp[0m|[7;1m [0m|[30;1mp[0m|[30;1mp[0m|[30;1mp[0m|[30;1mp[0m|| 7
[32;1m[Board] [0m  -------------------
[32;1m[Board] [0m6 ||[7;1m [0m| |[7;1m [0m| |[7;1m [0m| |[7;1m [0m| || 6
[32;1m[Board] [0m  -------------------
[32;1m[Board] [0m5 || |[7;1m [0m| |[7;1m [0m| |[7;1m [0m| |[7;1m [0m|| 5
[32;1m[Board] [0m  -------------------
[32;1m[Board] [0m4 ||[7;1m [0m| |[7;1m [0m| |[7;1m [0m| |[7;1m [0m| || 4
[32;1m[Board] [0m  -------------------
[32;1m[Board] [0m3 ||[0;1mQ[0m|[7;1m [0m|[30;1mp[0m|[7;1m [0m| |[7;1m [0m| |[7;1m [0m|| 3
[32;1m[Board] [0m  -------------------
[32;1m[Board] [0m2 ||[0;1mp[0m|[0;1mp[0m|[7;1m [0m|[0;1mp[0m|[0;1mp[0m|[0;1mp[0m|[0;1mp[0m|[0;1mp[0m|| 2
[32;1m[Board] [0m  -------------------
[32;1m[Board] [0m1 ||[0;1mr[0m|[0;1mk[0m|[0;1mb[0m|[7;1m [0m|[0;1mK[0m|[0;1mb[0m|[0;1mk[0m|[0;1mr[0m|| 1
[32;1m[Board] [0m  -------------------
[32;1m[Board] [0m    a b c d e f g h
[32;1m[Board] [0m
[32;1m[Referee] [0mThis is the turn of the White player...
Input file: championship/lizzie-iii-remmato-iii/history.csv
Output file: championship/lizzie-iii-remmato-iii/move.csv
Turn of: white
Succesful move
c2c3
8 | R N B Q K B N R 
7 | P P P P P P P P 
6 | _ _ _ _ _ _ _ _ 
5 | _ _ _ _ _ _ _ _ 
4 | _ _ _ _ _ _ _ _ 
3 | _ _ P _ _ _ _ _ 
2 | P P _ P P P P P 
1 | R N B Q K B N R 
-------------------
  | A B C D E F G H 

Turn of: black
Succesful move
d7d5
8 | R N B Q K B N R 
7 | P P P _ P P P P 
6 | _ _ _ _ _ _ _ _ 
5 | _ _ _ P _ _ _ _ 
4 | _ _ _ _ _ _ _ _ 
3 | _ _ P _ _ _ _ _ 
2 | P P _ P P P P P 
1 | R N B Q K B N R 
-------------------
  | A B C D E F G H 

Turn of: white
Succesful move
d1b3
8 | R N B Q K B N R 
7 | P P P _ P P P P 
6 | _ _ _ _ _ _ _ _ 
5 | _ _ _ P _ _ _ _ 
4 | _ _ _ _ _ _ _ _ 
3 | _ Q P _ _ _ _ _ 
2 | P P _ P P P P P 
1 | R N B _ K B N R 
-------------------
  | A B C D E F G H 

Turn of: black
Succesful move
d5d4
8 | R N B Q K B N R 
7 | P P P _ P P P P 
6 | _ _ _ _ _ _ _ _ 
5 | _ _ _ _ _ _ _ _ 
4 | _ _ _ P _ _ _ _ 
3 | _ Q P _ _ _ _ _ 
2 | P P _ P P P P P 
1 | R N B _ K B N R 
-------------------
  | A B C D E F G H 

Turn of: white
Succesful move
b3a3
8 | R N B Q K B N R 
7 | P P P _ P P P P 
6 | _ _ _ _ _ _ _ _ 
5 | _ _ _ _ _ _ _ _ 
4 | _ _ _ P _ _ _ _ 
3 | Q _ P _ _ _ _ _ 
2 | P P _ P P P P P 
1 | R N B _ K B N R 
-------------------
  | A B C D E F G H 

Turn of: black
Succesful move
d4c3
8 | R N B Q K B N R 
7 | P P P _ P P P P 
6 | _ _ _ _ _ _ _ _ 
5 | _ _ _ _ _ _ _ _ 
4 | _ _ _ _ _ _ _ _ 
3 | Q _ P _ _ _ _ _ 
2 | P P _ P P P P P 
1 | R N B _ K B N R 
-------------------
  | A B C D E F G H 

We are playing as White
Move history:
c2c3
d7d5
d1b3
d5d4
b3a3
d4c3
8 | R N B Q K B N R 
7 | P P P _ P P P P 
6 | _ _ _ _ _ _ _ _ 
5 | _ _ _ _ _ _ _ _ 
4 | _ _ _ _ _ _ _ _ 
3 | Q _ P _ _ _ _ _ 
2 | P P _ P P P P P 
1 | R N B _ K B N R 
-------------------
  | A B C D E F G H 

It is white's turn to play.
AI's move: e2e3
Move written: e2e3
[32;1m[Game] [0mPlayer's error code: 0
[32;1m[Game] [0mChecking move validity...
[32;1m[Board] [0mInitializing board...
[32;1m[Board] [0mLoading history file `championship/lizzie-iii-remmato-iii/history.csv`...
[32;1m[Board] [0mLoaded 6 move(s).
[32;1m[Board] [0mLoading move file `championship/lizzie-iii-remmato-iii/move.csv`...
[32;1m[Board] [0mWhite player is playing e2 to e3.
[32;1m[Board] [0m
[32;1m[Board] [0m    a b c d e f g h 
[32;1m[Board] [0m  -------------------
[32;1m[Board] [0m8 ||[30;1mr[0m|[30;1mk[0m|[30;1mb[0m|[30;1mQ[0m|[30;1mK[0m|[30;1mb[0m|[30;1mk[0m|[30;1mr[0m|| 8
[32;1m[Board] [0m  -------------------
[32;1m[Board] [0m7 ||[30;1mp[0m|[30;1mp[0m|[30;1mp[0m|[7;1m [0m|[30;1mp[0m|[30;1mp[0m|[30;1mp[0m|[30;1mp[0m|| 7
[32;1m[Board] [0m  -------------------
[32;1m[Board] [0m6 ||[7;1m [0m| |[7;1m [0m| |[7;1m [0m| |[7;1m [0m| || 6
[32;1m[Board] [0m  -------------------
[32;1m[Board] [0m5 || |[7;1m [0m| |[7;1m [0m| |[7;1m [0m| |[7;1m [0m|| 5
[32;1m[Board] [0m  -------------------
[32;1m[Board] [0m4 ||[7;1m [0m| |[7;1m [0m| |[7;1m [0m| |[7;1m [0m| || 4
[32;1m[Board] [0m  -------------------
[32;1m[Board] [0m3 ||[0;1mQ[0m|[7;1m [0m|[30;1mp[0m|[7;1m [0m|[0;1mp[0m|[7;1m [0m| |[7;1m [0m|| 3
[32;1m[Board] [0m  -------------------
[32;1m[Board] [0m2 ||[0;1mp[0m|[0;1mp[0m|[7;1m [0m|[0;1mp[0m|[7;1m [0m|[0;1mp[0m|[0;1mp[0m|[0;1mp[0m|| 2
[32;1m[Board] [0m  -------------------
[32;1m[Board] [0m1 ||[0;1mr[0m|[0;1mk[0m|[0;1mb[0m|[7;1m [0m|[0;1mK[0m|[0;1mb[0m|[0;1mk[0m|[0;1mr[0m|| 1
[32;1m[Board] [0m  -------------------
[32;1m[Board] [0m    a b c d e f g h
[32;1m[Board] [0m
[32;1m[Referee] [0mThis is the turn of the Black player...
Error: /home/julien/Pro/git/teaching/x/2024/remmato-iii/build/bin/../resources/openings does not exist or is not a directory
[32;1m[Game] [0mPlayer's error code: 0
[32;1m[Game] [0mChecking move validity...
[32;1m[Board] [0mInitializing board...
[32;1m[Board] [0mLoading history file `championship/lizzie-iii-remmato-iii/history.csv`...
[32;1m[Board] [0mLoaded 7 move(s).
[32;1m[Board] [0mLoading move file `championship/lizzie-iii-remmato-iii/move.csv`...
[32;1m[Board] [0mBlack player is playing c3 to c2.
[32;1m[Board] [0m
[32;1m[Board] [0m    a b c d e f g h 
[32;1m[Board] [0m  -------------------
[32;1m[Board] [0m8 ||[30;1mr[0m|[30;1mk[0m|[30;1mb[0m|[30;1mQ[0m|[30;1mK[0m|[30;1mb[0m|[30;1mk[0m|[30;1mr[0m|| 8
[32;1m[Board] [0m  -------------------
[32;1m[Board] [0m7 ||[30;1mp[0m|[30;1mp[0m|[30;1mp[0m|[7;1m [0m|[30;1mp[0m|[30;1mp[0m|[30;1mp[0m|[30;1mp[0m|| 7
[32;1m[Board] [0m  -------------------
[32;1m[Board] [0m6 ||[7;1m [0m| |[7;1m [0m| |[7;1m [0m| |[7;1m [0m| || 6
[32;1m[Board] [0m  -------------------
[32;1m[Board] [0m5 || |[7;1m [0m| |[7;1m [0m| |[7;1m [0m| |[7;1m [0m|| 5
[32;1m[Board] [0m  -------------------
[32;1m[Board] [0m4 ||[7;1m [0m| |[7;1m [0m| |[7;1m [0m| |[7;1m [0m| || 4
[32;1m[Board] [0m  -------------------
[32;1m[Board] [0m3 ||[0;1mQ[0m|[7;1m [0m| |[7;1m [0m|[0;1mp[0m|[7;1m [0m| |[7;1m [0m|| 3
[32;1m[Board] [0m  -------------------
[32;1m[Board] [0m2 ||[0;1mp[0m|[0;1mp[0m|[30;1mp[0m|[0;1mp[0m|[7;1m [0m|[0;1mp[0m|[0;1mp[0m|[0;1mp[0m|| 2
[32;1m[Board] [0m  -------------------
[32;1m[Board] [0m1 ||[0;1mr[0m|[0;1mk[0m|[0;1mb[0m|[7;1m [0m|[0;1mK[0m|[0;1mb[0m|[0;1mk[0m|[0;1mr[0m|| 1
[32;1m[Board] [0m  -------------------
[32;1m[Board] [0m    a b c d e f g h
[32;1m[Board] [0m
[32;1m[Referee] [0mThis is the turn of the White player...
Input file: championship/lizzie-iii-remmato-iii/history.csv
Output file: championship/lizzie-iii-remmato-iii/move.csv
Turn of: white
Succesful move
c2c3
8 | R N B Q K B N R 
7 | P P P P P P P P 
6 | _ _ _ _ _ _ _ _ 
5 | _ _ _ _ _ _ _ _ 
4 | _ _ _ _ _ _ _ _ 
3 | _ _ P _ _ _ _ _ 
2 | P P _ P P P P P 
1 | R N B Q K B N R 
-------------------
  | A B C D E F G H 

Turn of: black
Succesful move
d7d5
8 | R N B Q K B N R 
7 | P P P _ P P P P 
6 | _ _ _ _ _ _ _ _ 
5 | _ _ _ P _ _ _ _ 
4 | _ _ _ _ _ _ _ _ 
3 | _ _ P _ _ _ _ _ 
2 | P P _ P P P P P 
1 | R N B Q K B N R 
-------------------
  | A B C D E F G H 

Turn of: white
Succesful move
d1b3
8 | R N B Q K B N R 
7 | P P P _ P P P P 
6 | _ _ _ _ _ _ _ _ 
5 | _ _ _ P _ _ _ _ 
4 | _ _ _ _ _ _ _ _ 
3 | _ Q P _ _ _ _ _ 
2 | P P _ P P P P P 
1 | R N B _ K B N R 
-------------------
  | A B C D E F G H 

Turn of: black
Succesful move
d5d4
8 | R N B Q K B N R 
7 | P P P _ P P P P 
6 | _ _ _ _ _ _ _ _ 
5 | _ _ _ _ _ _ _ _ 
4 | _ _ _ P _ _ _ _ 
3 | _ Q P _ _ _ _ _ 
2 | P P _ P P P P P 
1 | R N B _ K B N R 
-------------------
  | A B C D E F G H 

Turn of: white
Succesful move
b3a3
8 | R N B Q K B N R 
7 | P P P _ P P P P 
6 | _ _ _ _ _ _ _ _ 
5 | _ _ _ _ _ _ _ _ 
4 | _ _ _ P _ _ _ _ 
3 | Q _ P _ _ _ _ _ 
2 | P P _ P P P P P 
1 | R N B _ K B N R 
-------------------
  | A B C D E F G H 

Turn of: black
Succesful move
d4c3
8 | R N B Q K B N R 
7 | P P P _ P P P P 
6 | _ _ _ _ _ _ _ _ 
5 | _ _ _ _ _ _ _ _ 
4 | _ _ _ _ _ _ _ _ 
3 | Q _ P _ _ _ _ _ 
2 | P P _ P P P P P 
1 | R N B _ K B N R 
-------------------
  | A B C D E F G H 

Turn of: white
Succesful move
e2e3
8 | R N B Q K B N R 
7 | P P P _ P P P P 
6 | _ _ _ _ _ _ _ _ 
5 | _ _ _ _ _ _ _ _ 
4 | _ _ _ _ _ _ _ _ 
3 | Q _ P _ P _ _ _ 
2 | P P _ P _ P P P 
1 | R N B _ K B N R 
-------------------
  | A B C D E F G H 

Turn of: black
Succesful move
c3c2
8 | R N B Q K B N R 
7 | P P P _ P P P P 
6 | _ _ _ _ _ _ _ _ 
5 | _ _ _ _ _ _ _ _ 
4 | _ _ _ _ _ _ _ _ 
3 | Q _ _ _ P _ _ _ 
2 | P P P P _ P P P 
1 | R N B _ K B N R 
-------------------
  | A B C D E F G H 

We are playing as White
Move history:
c2c3
d7d5
d1b3
d5d4
b3a3
d4c3
e2e3
c3c2
8 | R N B Q K B N R 
7 | P P P _ P P P P 
6 | _ _ _ _ _ _ _ _ 
5 | _ _ _ _ _ _ _ _ 
4 | _ _ _ _ _ _ _ _ 
3 | Q _ _ _ P _ _ _ 
2 | P P P P _ P P P 
1 | R N B _ K B N R 
-------------------
  | A B C D E F G H 

It is white's turn to play.
AI's move: e3e4
Move written: e3e4
[32;1m[Game] [0mPlayer's error code: 0
[32;1m[Game] [0mChecking move validity...
[32;1m[Board] [0mInitializing board...
[32;1m[Board] [0mLoading history file `championship/lizzie-iii-remmato-iii/history.csv`...
[32;1m[Board] [0mLoaded 8 move(s).
[32;1m[Board] [0mLoading move file `championship/lizzie-iii-remmato-iii/move.csv`...
[32;1m[Board] [0mWhite player is playing e3 to e4.
[32;1m[Board] [0m
[32;1m[Board] [0m    a b c d e f g h 
[32;1m[Board] [0m  -------------------
[32;1m[Board] [0m8 ||[30;1mr[0m|[30;1mk[0m|[30;1mb[0m|[30;1mQ[0m|[30;1mK[0m|[30;1mb[0m|[30;1mk[0m|[30;1mr[0m|| 8
[32;1m[Board] [0m  -------------------
[32;1m[Board] [0m7 ||[30;1mp[0m|[30;1mp[0m|[30;1mp[0m|[7;1m [0m|[30;1mp[0m|[30;1mp[0m|[30;1mp[0m|[30;1mp[0m|| 7
[32;1m[Board] [0m  -------------------
[32;1m[Board] [0m6 ||[7;1m [0m| |[7;1m [0m| |[7;1m [0m| |[7;1m [0m| || 6
[32;1m[Board] [0m  -------------------
[32;1m[Board] [0m5 || |[7;1m [0m| |[7;1m [0m| |[7;1m [0m| |[7;1m [0m|| 5
[32;1m[Board] [0m  -------------------
[32;1m[Board] [0m4 ||[7;1m [0m| |[7;1m [0m| |[0;1mp[0m| |[7;1m [0m| || 4
[32;1m[Board] [0m  -------------------
[32;1m[Board] [0m3 ||[0;1mQ[0m|[7;1m [0m| |[7;1m [0m| |[7;1m [0m| |[7;1m [0m|| 3
[32;1m[Board] [0m  -------------------
[32;1m[Board] [0m2 ||[0;1mp[0m|[0;1mp[0m|[30;1mp[0m|[0;1mp[0m|[7;1m [0m|[0;1mp[0m|[0;1mp[0m|[0;1mp[0m|| 2
[32;1m[Board] [0m  -------------------
[32;1m[Board] [0m1 ||[0;1mr[0m|[0;1mk[0m|[0;1mb[0m|[7;1m [0m|[0;1mK[0m|[0;1mb[0m|[0;1mk[0m|[0;1mr[0m|| 1
[32;1m[Board] [0m  -------------------
[32;1m[Board] [0m    a b c d e f g h
[32;1m[Board] [0m
[32;1m[Referee] [0mThis is the turn of the Black player...
Error: /home/julien/Pro/git/teaching/x/2024/remmato-iii/build/bin/../resources/openings does not exist or is not a directory
[32;1m[Game] [0mPlayer's error code: 0
[32;1m[Game] [0mChecking move validity...
[32;1m[Board] [0mInitializing board...
[32;1m[Board] [0mLoading history file `championship/lizzie-iii-remmato-iii/history.csv`...
[32;1m[Board] [0mLoaded 9 move(s).
[32;1m[Board] [0mLoading move file `championship/lizzie-iii-remmato-iii/move.csv`...
[32;1m[Board] [0mBlack player is playing e7 to e5.
[32;1m[Board] [0m
[32;1m[Board] [0m    a b c d e f g h 
[32;1m[Board] [0m  -------------------
[32;1m[Board] [0m8 ||[30;1mr[0m|[30;1mk[0m|[30;1mb[0m|[30;1mQ[0m|[30;1mK[0m|[30;1mb[0m|[30;1mk[0m|[30;1mr[0m|| 8
[32;1m[Board] [0m  -------------------
[32;1m[Board] [0m7 ||[30;1mp[0m|[30;1mp[0m|[30;1mp[0m|[7;1m [0m| |[30;1mp[0m|[30;1mp[0m|[30;1mp[0m|| 7
[32;1m[Board] [0m  -------------------
[32;1m[Board] [0m6 ||[7;1m [0m| |[7;1m [0m| |[7;1m [0m| |[7;1m [0m| || 6
[32;1m[Board] [0m  -------------------
[32;1m[Board] [0m5 || |[7;1m [0m| |[7;1m [0m|[30;1mp[0m|[7;1m [0m| |[7;1m [0m|| 5
[32;1m[Board] [0m  -------------------
[32;1m[Board] [0m4 ||[7;1m [0m| |[7;1m [0m| |[0;1mp[0m| |[7;1m [0m| || 4
[32;1m[Board] [0m  -------------------
[32;1m[Board] [0m3 ||[0;1mQ[0m|[7;1m [0m| |[7;1m [0m| |[7;1m [0m| |[7;1m [0m|| 3
[32;1m[Board] [0m  -------------------
[32;1m[Board] [0m2 ||[0;1mp[0m|[0;1mp[0m|[30;1mp[0m|[0;1mp[0m|[7;1m [0m|[0;1mp[0m|[0;1mp[0m|[0;1mp[0m|| 2
[32;1m[Board] [0m  -------------------
[32;1m[Board] [0m1 ||[0;1mr[0m|[0;1mk[0m|[0;1mb[0m|[7;1m [0m|[0;1mK[0m|[0;1mb[0m|[0;1mk[0m|[0;1mr[0m|| 1
[32;1m[Board] [0m  -------------------
[32;1m[Board] [0m    a b c d e f g h
[32;1m[Board] [0m
[32;1m[Referee] [0mThis is the turn of the White player...
Input file: championship/lizzie-iii-remmato-iii/history.csv
Output file: championship/lizzie-iii-remmato-iii/move.csv
Turn of: white
Succesful move
c2c3
8 | R N B Q K B N R 
7 | P P P P P P P P 
6 | _ _ _ _ _ _ _ _ 
5 | _ _ _ _ _ _ _ _ 
4 | _ _ _ _ _ _ _ _ 
3 | _ _ P _ _ _ _ _ 
2 | P P _ P P P P P 
1 | R N B Q K B N R 
-------------------
  | A B C D E F G H 

Turn of: black
Succesful move
d7d5
8 | R N B Q K B N R 
7 | P P P _ P P P P 
6 | _ _ _ _ _ _ _ _ 
5 | _ _ _ P _ _ _ _ 
4 | _ _ _ _ _ _ _ _ 
3 | _ _ P _ _ _ _ _ 
2 | P P _ P P P P P 
1 | R N B Q K B N R 
-------------------
  | A B C D E F G H 

Turn of: white
Succesful move
d1b3
8 | R N B Q K B N R 
7 | P P P _ P P P P 
6 | _ _ _ _ _ _ _ _ 
5 | _ _ _ P _ _ _ _ 
4 | _ _ _ _ _ _ _ _ 
3 | _ Q P _ _ _ _ _ 
2 | P P _ P P P P P 
1 | R N B _ K B N R 
-------------------
  | A B C D E F G H 

Turn of: black
Succesful move
d5d4
8 | R N B Q K B N R 
7 | P P P _ P P P P 
6 | _ _ _ _ _ _ _ _ 
5 | _ _ _ _ _ _ _ _ 
4 | _ _ _ P _ _ _ _ 
3 | _ Q P _ _ _ _ _ 
2 | P P _ P P P P P 
1 | R N B _ K B N R 
-------------------
  | A B C D E F G H 

Turn of: white
Succesful move
b3a3
8 | R N B Q K B N R 
7 | P P P _ P P P P 
6 | _ _ _ _ _ _ _ _ 
5 | _ _ _ _ _ _ _ _ 
4 | _ _ _ P _ _ _ _ 
3 | Q _ P _ _ _ _ _ 
2 | P P _ P P P P P 
1 | R N B _ K B N R 
-------------------
  | A B C D E F G H 

Turn of: black
Succesful move
d4c3
8 | R N B Q K B N R 
7 | P P P _ P P P P 
6 | _ _ _ _ _ _ _ _ 
5 | _ _ _ _ _ _ _ _ 
4 | _ _ _ _ _ _ _ _ 
3 | Q _ P _ _ _ _ _ 
2 | P P _ P P P P P 
1 | R N B _ K B N R 
-------------------
  | A B C D E F G H 

Turn of: white
Succesful move
e2e3
8 | R N B Q K B N R 
7 | P P P _ P P P P 
6 | _ _ _ _ _ _ _ _ 
5 | _ _ _ _ _ _ _ _ 
4 | _ _ _ _ _ _ _ _ 
3 | Q _ P _ P _ _ _ 
2 | P P _ P _ P P P 
1 | R N B _ K B N R 
-------------------
  | A B C D E F G H 

Turn of: black
Succesful move
c3c2
8 | R N B Q K B N R 
7 | P P P _ P P P P 
6 | _ _ _ _ _ _ _ _ 
5 | _ _ _ _ _ _ _ _ 
4 | _ _ _ _ _ _ _ _ 
3 | Q _ _ _ P _ _ _ 
2 | P P P P _ P P P 
1 | R N B _ K B N R 
-------------------
  | A B C D E F G H 

Turn of: white
Succesful move
e3e4
8 | R N B Q K B N R 
7 | P P P _ P P P P 
6 | _ _ _ _ _ _ _ _ 
5 | _ _ _ _ _ _ _ _ 
4 | _ _ _ _ P _ _ _ 
3 | Q _ _ _ _ _ _ _ 
2 | P P P P _ P P P 
1 | R N B _ K B N R 
-------------------
  | A B C D E F G H 

Turn of: black
Succesful move
e7e5
8 | R N B Q K B N R 
7 | P P P _ _ P P P 
6 | _ _ _ _ _ _ _ _ 
5 | _ _ _ _ P _ _ _ 
4 | _ _ _ _ P _ _ _ 
3 | Q _ _ _ _ _ _ _ 
2 | P P P P _ P P P 
1 | R N B _ K B N R 
-------------------
  | A B C D E F G H 

We are playing as White
Move history:
c2c3
d7d5
d1b3
d5d4
b3a3
d4c3
e2e3
c3c2
e3e4
e7e5
8 | R N B Q K B N R 
7 | P P P _ _ P P P 
6 | _ _ _ _ _ _ _ _ 
5 | _ _ _ _ P _ _ _ 
4 | _ _ _ _ P _ _ _ 
3 | Q _ _ _ _ _ _ _ 
2 | P P P P _ P P P 
1 | R N B _ K B N R 
-------------------
  | A B C D E F G H 

It is white's turn to play.
AI's move: b2b3
Move written: b2b3
[32;1m[Game] [0mPlayer's error code: 0
[32;1m[Game] [0mChecking move validity...
[32;1m[Board] [0mInitializing board...
[32;1m[Board] [0mLoading history file `championship/lizzie-iii-remmato-iii/history.csv`...
[32;1m[Board] [0mLoaded 10 move(s).
[32;1m[Board] [0mLoading move file `championship/lizzie-iii-remmato-iii/move.csv`...
[32;1m[Board] [0mWhite player is playing b2 to b3.
[32;1m[Board] [0m
[32;1m[Board] [0m    a b c d e f g h 
[32;1m[Board] [0m  -------------------
[32;1m[Board] [0m8 ||[30;1mr[0m|[30;1mk[0m|[30;1mb[0m|[30;1mQ[0m|[30;1mK[0m|[30;1mb[0m|[30;1mk[0m|[30;1mr[0m|| 8
[32;1m[Board] [0m  -------------------
[32;1m[Board] [0m7 ||[30;1mp[0m|[30;1mp[0m|[30;1mp[0m|[7;1m [0m| |[30;1mp[0m|[30;1mp[0m|[30;1mp[0m|| 7
[32;1m[Board] [0m  -------------------
[32;1m[Board] [0m6 ||[7;1m [0m| |[7;1m [0m| |[7;1m [0m| |[7;1m [0m| || 6
[32;1m[Board] [0m  -------------------
[32;1m[Board] [0m5 || |[7;1m [0m| |[7;1m [0m|[30;1mp[0m|[7;1m [0m| |[7;1m [0m|| 5
[32;1m[Board] [0m  -------------------
[32;1m[Board] [0m4 ||[7;1m [0m| |[7;1m [0m| |[0;1mp[0m| |[7;1m [0m| || 4
[32;1m[Board] [0m  -------------------
[32;1m[Board] [0m3 ||[0;1mQ[0m|[0;1mp[0m| |[7;1m [0m| |[7;1m [0m| |[7;1m [0m|| 3
[32;1m[Board] [0m  -------------------
[32;1m[Board] [0m2 ||[0;1mp[0m| |[30;1mp[0m|[0;1mp[0m|[7;1m [0m|[0;1mp[0m|[0;1mp[0m|[0;1mp[0m|| 2
[32;1m[Board] [0m  -------------------
[32;1m[Board] [0m1 ||[0;1mr[0m|[0;1mk[0m|[0;1mb[0m|[7;1m [0m|[0;1mK[0m|[0;1mb[0m|[0;1mk[0m|[0;1mr[0m|| 1
[32;1m[Board] [0m  -------------------
[32;1m[Board] [0m    a b c d e f g h
[32;1m[Board] [0m
[32;1m[Referee] [0mThis is the turn of the Black player...
Error: /home/julien/Pro/git/teaching/x/2024/remmato-iii/build/bin/../resources/openings does not exist or is not a directory
[32;1m[Game] [0mPlayer's error code: 0
[32;1m[Game] [0mChecking move validity...
[32;1m[Board] [0mInitializing board...
[32;1m[Board] [0mLoading history file `championship/lizzie-iii-remmato-iii/history.csv`...
[32;1m[Board] [0mLoaded 11 move(s).
[32;1m[Board] [0mLoading move file `championship/lizzie-iii-remmato-iii/move.csv`...
[32;1m[Board] [0mBlack player is playing d8 to d4.
[32;1m[Board] [0m
[32;1m[Board] [0m    a b c d e f g h 
[32;1m[Board] [0m  -------------------
[32;1m[Board] [0m8 ||[30;1mr[0m|[30;1mk[0m|[30;1mb[0m| |[30;1mK[0m|[30;1mb[0m|[30;1mk[0m|[30;1mr[0m|| 8
[32;1m[Board] [0m  -------------------
[32;1m[Board] [0m7 ||[30;1mp[0m|[30;1mp[0m|[30;1mp[0m|[7;1m [0m| |[30;1mp[0m|[30;1mp[0m|[30;1mp[0m|| 7
[32;1m[Board] [0m  -------------------
[32;1m[Board] [0m6 ||[7;1m [0m| |[7;1m [0m| |[7;1m [0m| |[7;1m [0m| || 6
[32;1m[Board] [0m  -------------------
[32;1m[Board] [0m5 || |[7;1m [0m| |[7;1m [0m|[30;1mp[0m|[7;1m [0m| |[7;1m [0m|| 5
[32;1m[Board] [0m  -------------------
[32;1m[Board] [0m4 ||[7;1m [0m| |[7;1m [0m|[30;1mQ[0m|[0;1mp[0m| |[7;1m [0m| || 4
[32;1m[Board] [0m  -------------------
[32;1m[Board] [0m3 ||[0;1mQ[0m|[0;1mp[0m| |[7;1m [0m| |[7;1m [0m| |[7;1m [0m|| 3
[32;1m[Board] [0m  -------------------
[32;1m[Board] [0m2 ||[0;1mp[0m| |[30;1mp[0m|[0;1mp[0m|[7;1m [0m|[0;1mp[0m|[0;1mp[0m|[0;1mp[0m|| 2
[32;1m[Board] [0m  -------------------
[32;1m[Board] [0m1 ||[0;1mr[0m|[0;1mk[0m|[0;1mb[0m|[7;1m [0m|[0;1mK[0m|[0;1mb[0m|[0;1mk[0m|[0;1mr[0m|| 1
[32;1m[Board] [0m  -------------------
[32;1m[Board] [0m    a b c d e f g h
[32;1m[Board] [0m
[32;1m[Referee] [0mThis is the turn of the White player...
Input file: championship/lizzie-iii-remmato-iii/history.csv
Output file: championship/lizzie-iii-remmato-iii/move.csv
Turn of: white
Succesful move
c2c3
8 | R N B Q K B N R 
7 | P P P P P P P P 
6 | _ _ _ _ _ _ _ _ 
5 | _ _ _ _ _ _ _ _ 
4 | _ _ _ _ _ _ _ _ 
3 | _ _ P _ _ _ _ _ 
2 | P P _ P P P P P 
1 | R N B Q K B N R 
-------------------
  | A B C D E F G H 

Turn of: black
Succesful move
d7d5
8 | R N B Q K B N R 
7 | P P P _ P P P P 
6 | _ _ _ _ _ _ _ _ 
5 | _ _ _ P _ _ _ _ 
4 | _ _ _ _ _ _ _ _ 
3 | _ _ P _ _ _ _ _ 
2 | P P _ P P P P P 
1 | R N B Q K B N R 
-------------------
  | A B C D E F G H 

Turn of: white
Succesful move
d1b3
8 | R N B Q K B N R 
7 | P P P _ P P P P 
6 | _ _ _ _ _ _ _ _ 
5 | _ _ _ P _ _ _ _ 
4 | _ _ _ _ _ _ _ _ 
3 | _ Q P _ _ _ _ _ 
2 | P P _ P P P P P 
1 | R N B _ K B N R 
-------------------
  | A B C D E F G H 

Turn of: black
Succesful move
d5d4
8 | R N B Q K B N R 
7 | P P P _ P P P P 
6 | _ _ _ _ _ _ _ _ 
5 | _ _ _ _ _ _ _ _ 
4 | _ _ _ P _ _ _ _ 
3 | _ Q P _ _ _ _ _ 
2 | P P _ P P P P P 
1 | R N B _ K B N R 
-------------------
  | A B C D E F G H 

Turn of: white
Succesful move
b3a3
8 | R N B Q K B N R 
7 | P P P _ P P P P 
6 | _ _ _ _ _ _ _ _ 
5 | _ _ _ _ _ _ _ _ 
4 | _ _ _ P _ _ _ _ 
3 | Q _ P _ _ _ _ _ 
2 | P P _ P P P P P 
1 | R N B _ K B N R 
-------------------
  | A B C D E F G H 

Turn of: black
Succesful move
d4c3
8 | R N B Q K B N R 
7 | P P P _ P P P P 
6 | _ _ _ _ _ _ _ _ 
5 | _ _ _ _ _ _ _ _ 
4 | _ _ _ _ _ _ _ _ 
3 | Q _ P _ _ _ _ _ 
2 | P P _ P P P P P 
1 | R N B _ K B N R 
-------------------
  | A B C D E F G H 

Turn of: white
Succesful move
e2e3
8 | R N B Q K B N R 
7 | P P P _ P P P P 
6 | _ _ _ _ _ _ _ _ 
5 | _ _ _ _ _ _ _ _ 
4 | _ _ _ _ _ _ _ _ 
3 | Q _ P _ P _ _ _ 
2 | P P _ P _ P P P 
1 | R N B _ K B N R 
-------------------
  | A B C D E F G H 

Turn of: black
Succesful move
c3c2
8 | R N B Q K B N R 
7 | P P P _ P P P P 
6 | _ _ _ _ _ _ _ _ 
5 | _ _ _ _ _ _ _ _ 
4 | _ _ _ _ _ _ _ _ 
3 | Q _ _ _ P _ _ _ 
2 | P P P P _ P P P 
1 | R N B _ K B N R 
-------------------
  | A B C D E F G H 

Turn of: white
Succesful move
e3e4
8 | R N B Q K B N R 
7 | P P P _ P P P P 
6 | _ _ _ _ _ _ _ _ 
5 | _ _ _ _ _ _ _ _ 
4 | _ _ _ _ P _ _ _ 
3 | Q _ _ _ _ _ _ _ 
2 | P P P P _ P P P 
1 | R N B _ K B N R 
-------------------
  | A B C D E F G H 

Turn of: black
Succesful move
e7e5
8 | R N B Q K B N R 
7 | P P P _ _ P P P 
6 | _ _ _ _ _ _ _ _ 
5 | _ _ _ _ P _ _ _ 
4 | _ _ _ _ P _ _ _ 
3 | Q _ _ _ _ _ _ _ 
2 | P P P P _ P P P 
1 | R N B _ K B N R 
-------------------
  | A B C D E F G H 

Turn of: white
Succesful move
b2b3
8 | R N B Q K B N R 
7 | P P P _ _ P P P 
6 | _ _ _ _ _ _ _ _ 
5 | _ _ _ _ P _ _ _ 
4 | _ _ _ _ P _ _ _ 
3 | Q P _ _ _ _ _ _ 
2 | P _ P P _ P P P 
1 | R N B _ K B N R 
-------------------
  | A B C D E F G H 

Turn of: black
Succesful move
d8d4
8 | R N B _ K B N R 
7 | P P P _ _ P P P 
6 | _ _ _ _ _ _ _ _ 
5 | _ _ _ _ P _ _ _ 
4 | _ _ _ Q P _ _ _ 
3 | Q P _ _ _ _ _ _ 
2 | P _ P P _ P P P 
1 | R N B _ K B N R 
-------------------
  | A B C D E F G H 

We are playing as White
Move history:
c2c3
d7d5
d1b3
d5d4
b3a3
d4c3
e2e3
c3c2
e3e4
e7e5
b2b3
d8d4
8 | R N B _ K B N R 
7 | P P P _ _ P P P 
6 | _ _ _ _ _ _ _ _ 
5 | _ _ _ _ P _ _ _ 
4 | _ _ _ Q P _ _ _ 
3 | Q P _ _ _ _ _ _ 
2 | P _ P P _ P P P 
1 | R N B _ K B N R 
-------------------
  | A B C D E F G H 

It is white's turn to play.
AI's move: c1b2
Move written: c1b2
[32;1m[Game] [0mPlayer's error code: 0
[32;1m[Game] [0mChecking move validity...
[32;1m[Board] [0mInitializing board...
[32;1m[Board] [0mLoading history file `championship/lizzie-iii-remmato-iii/history.csv`...
[32;1m[Board] [0mLoaded 12 move(s).
[32;1m[Board] [0mLoading move file `championship/lizzie-iii-remmato-iii/move.csv`...
[32;1m[Board] [0mWhite player is playing c1 to b2.
[32;1m[Board] [0m
[32;1m[Board] [0m    a b c d e f g h 
[32;1m[Board] [0m  -------------------
[32;1m[Board] [0m8 ||[30;1mr[0m|[30;1mk[0m|[30;1mb[0m| |[30;1mK[0m|[30;1mb[0m|[30;1mk[0m|[30;1mr[0m|| 8
[32;1m[Board] [0m  -------------------
[32;1m[Board] [0m7 ||[30;1mp[0m|[30;1mp[0m|[30;1mp[0m|[7;1m [0m| |[30;1mp[0m|[30;1mp[0m|[30;1mp[0m|| 7
[32;1m[Board] [0m  -------------------
[32;1m[Board] [0m6 ||[7;1m [0m| |[7;1m [0m| |[7;1m [0m| |[7;1m [0m| || 6
[32;1m[Board] [0m  -------------------
[32;1m[Board] [0m5 || |[7;1m [0m| |[7;1m [0m|[30;1mp[0m|[7;1m [0m| |[7;1m [0m|| 5
[32;1m[Board] [0m  -------------------
[32;1m[Board] [0m4 ||[7;1m [0m| |[7;1m [0m|[30;1mQ[0m|[0;1mp[0m| |[7;1m [0m| || 4
[32;1m[Board] [0m  -------------------
[32;1m[Board] [0m3 ||[0;1mQ[0m|[0;1mp[0m| |[7;1m [0m| |[7;1m [0m| |[7;1m [0m|| 3
[32;1m[Board] [0m  -------------------
[32;1m[Board] [0m2 ||[0;1mp[0m|[0;1mb[0m|[30;1mp[0m|[0;1mp[0m|[7;1m [0m|[0;1mp[0m|[0;1mp[0m|[0;1mp[0m|| 2
[32;1m[Board] [0m  -------------------
[32;1m[Board] [0m1 ||[0;1mr[0m|[0;1mk[0m| |[7;1m [0m|[0;1mK[0m|[0;1mb[0m|[0;1mk[0m|[0;1mr[0m|| 1
[32;1m[Board] [0m  -------------------
[32;1m[Board] [0m    a b c d e f g h
[32;1m[Board] [0m
[32;1m[Referee] [0mThis is the turn of the Black player...
Error: /home/julien/Pro/git/teaching/x/2024/remmato-iii/build/bin/../resources/openings does not exist or is not a directory
[32;1m[Game] [0mPlayer's error code: 0
[32;1m[Game] [0mChecking move validity...
[32;1m[Board] [0mInitializing board...
[32;1m[Board] [0mLoading history file `championship/lizzie-iii-remmato-iii/history.csv`...
[32;1m[Board] [0mLoaded 13 move(s).
[32;1m[Board] [0mLoading move file `championship/lizzie-iii-remmato-iii/move.csv`...
[32;1m[Board] [0mBlack player is playing c2 to c1.
[32;1m[Board] [0mPromoting a Black Pawn into a Queen
[32;1m[Board] [0m
[32;1m[Board] [0m    a b c d e f g h 
[32;1m[Board] [0m  -------------------
[32;1m[Board] [0m8 ||[30;1mr[0m|[30;1mk[0m|[30;1mb[0m| |[30;1mK[0m|[30;1mb[0m|[30;1mk[0m|[30;1mr[0m|| 8
[32;1m[Board] [0m  -------------------
[32;1m[Board] [0m7 ||[30;1mp[0m|[30;1mp[0m|[30;1mp[0m|[7;1m [0m| |[30;1mp[0m|[30;1mp[0m|[30;1mp[0m|| 7
[32;1m[Board] [0m  -------------------
[32;1m[Board] [0m6 ||[7;1m [0m| |[7;1m [0m| |[7;1m [0m| |[7;1m [0m| || 6
[32;1m[Board] [0m  -------------------
[32;1m[Board] [0m5 || |[7;1m [0m| |[7;1m [0m|[30;1mp[0m|[7;1m [0m| |[7;1m [0m|| 5
[32;1m[Board] [0m  -------------------
[32;1m[Board] [0m4 ||[7;1m [0m| |[7;1m [0m|[30;1mQ[0m|[0;1mp[0m| |[7;1m [0m| || 4
[32;1m[Board] [0m  -------------------
[32;1m[Board] [0m3 ||[0;1mQ[0m|[0;1mp[0m| |[7;1m [0m| |[7;1m [0m| |[7;1m [0m|| 3
[32;1m[Board] [0m  -------------------
[32;1m[Board] [0m2 ||[0;1mp[0m|[0;1mb[0m|[7;1m [0m|[0;1mp[0m|[7;1m [0m|[0;1mp[0m|[0;1mp[0m|[0;1mp[0m|| 2
[32;1m[Board] [0m  -------------------
[32;1m[Board] [0m1 ||[0;1mr[0m|[0;1mk[0m|[30;1mQ[0m|[7;1m [0m|[0;1mK[0m|[0;1mb[0m|[0;1mk[0m|[0;1mr[0m|| 1
[32;1m[Board] [0m  -------------------
[32;1m[Board] [0m    a b c d e f g h
[32;1m[Board] [0m
[32;1m[Referee] [0mThis is the turn of the White player...
[32;1m[Board] [0m[33;1m[WARNING][0m [5;1mWhite King in check![0m
[32;1m[Board] [0m[33;1m[WARNING][0m    Threatened by Black Queen (c1)
Input file: championship/lizzie-iii-remmato-iii/history.csv
Output file: championship/lizzie-iii-remmato-iii/move.csv
Turn of: white
Succesful move
c2c3
8 | R N B Q K B N R 
7 | P P P P P P P P 
6 | _ _ _ _ _ _ _ _ 
5 | _ _ _ _ _ _ _ _ 
4 | _ _ _ _ _ _ _ _ 
3 | _ _ P _ _ _ _ _ 
2 | P P _ P P P P P 
1 | R N B Q K B N R 
-------------------
  | A B C D E F G H 

Turn of: black
Succesful move
d7d5
8 | R N B Q K B N R 
7 | P P P _ P P P P 
6 | _ _ _ _ _ _ _ _ 
5 | _ _ _ P _ _ _ _ 
4 | _ _ _ _ _ _ _ _ 
3 | _ _ P _ _ _ _ _ 
2 | P P _ P P P P P 
1 | R N B Q K B N R 
-------------------
  | A B C D E F G H 

Turn of: white
Succesful move
d1b3
8 | R N B Q K B N R 
7 | P P P _ P P P P 
6 | _ _ _ _ _ _ _ _ 
5 | _ _ _ P _ _ _ _ 
4 | _ _ _ _ _ _ _ _ 
3 | _ Q P _ _ _ _ _ 
2 | P P _ P P P P P 
1 | R N B _ K B N R 
-------------------
  | A B C D E F G H 

Turn of: black
Succesful move
d5d4
8 | R N B Q K B N R 
7 | P P P _ P P P P 
6 | _ _ _ _ _ _ _ _ 
5 | _ _ _ _ _ _ _ _ 
4 | _ _ _ P _ _ _ _ 
3 | _ Q P _ _ _ _ _ 
2 | P P _ P P P P P 
1 | R N B _ K B N R 
-------------------
  | A B C D E F G H 

Turn of: white
Succesful move
b3a3
8 | R N B Q K B N R 
7 | P P P _ P P P P 
6 | _ _ _ _ _ _ _ _ 
5 | _ _ _ _ _ _ _ _ 
4 | _ _ _ P _ _ _ _ 
3 | Q _ P _ _ _ _ _ 
2 | P P _ P P P P P 
1 | R N B _ K B N R 
-------------------
  | A B C D E F G H 

Turn of: black
Succesful move
d4c3
8 | R N B Q K B N R 
7 | P P P _ P P P P 
6 | _ _ _ _ _ _ _ _ 
5 | _ _ _ _ _ _ _ _ 
4 | _ _ _ _ _ _ _ _ 
3 | Q _ P _ _ _ _ _ 
2 | P P _ P P P P P 
1 | R N B _ K B N R 
-------------------
  | A B C D E F G H 

Turn of: white
Succesful move
e2e3
8 | R N B Q K B N R 
7 | P P P _ P P P P 
6 | _ _ _ _ _ _ _ _ 
5 | _ _ _ _ _ _ _ _ 
4 | _ _ _ _ _ _ _ _ 
3 | Q _ P _ P _ _ _ 
2 | P P _ P _ P P P 
1 | R N B _ K B N R 
-------------------
  | A B C D E F G H 

Turn of: black
Succesful move
c3c2
8 | R N B Q K B N R 
7 | P P P _ P P P P 
6 | _ _ _ _ _ _ _ _ 
5 | _ _ _ _ _ _ _ _ 
4 | _ _ _ _ _ _ _ _ 
3 | Q _ _ _ P _ _ _ 
2 | P P P P _ P P P 
1 | R N B _ K B N R 
-------------------
  | A B C D E F G H 

Turn of: white
Succesful move
e3e4
8 | R N B Q K B N R 
7 | P P P _ P P P P 
6 | _ _ _ _ _ _ _ _ 
5 | _ _ _ _ _ _ _ _ 
4 | _ _ _ _ P _ _ _ 
3 | Q _ _ _ _ _ _ _ 
2 | P P P P _ P P P 
1 | R N B _ K B N R 
-------------------
  | A B C D E F G H 

Turn of: black
Succesful move
e7e5
8 | R N B Q K B N R 
7 | P P P _ _ P P P 
6 | _ _ _ _ _ _ _ _ 
5 | _ _ _ _ P _ _ _ 
4 | _ _ _ _ P _ _ _ 
3 | Q _ _ _ _ _ _ _ 
2 | P P P P _ P P P 
1 | R N B _ K B N R 
-------------------
  | A B C D E F G H 

Turn of: white
Succesful move
b2b3
8 | R N B Q K B N R 
7 | P P P _ _ P P P 
6 | _ _ _ _ _ _ _ _ 
5 | _ _ _ _ P _ _ _ 
4 | _ _ _ _ P _ _ _ 
3 | Q P _ _ _ _ _ _ 
2 | P _ P P _ P P P 
1 | R N B _ K B N R 
-------------------
  | A B C D E F G H 

Turn of: black
Succesful move
d8d4
8 | R N B _ K B N R 
7 | P P P _ _ P P P 
6 | _ _ _ _ _ _ _ _ 
5 | _ _ _ _ P _ _ _ 
4 | _ _ _ Q P _ _ _ 
3 | Q P _ _ _ _ _ _ 
2 | P _ P P _ P P P 
1 | R N B _ K B N R 
-------------------
  | A B C D E F G H 

Turn of: white
Succesful move
c1b2
8 | R N B _ K B N R 
7 | P P P _ _ P P P 
6 | _ _ _ _ _ _ _ _ 
5 | _ _ _ _ P _ _ _ 
4 | _ _ _ Q P _ _ _ 
3 | Q P _ _ _ _ _ _ 
2 | P B P P _ P P P 
1 | R N _ _ K B N R 
-------------------
  | A B C D E F G H 

Turn of: black
Succesful move
c2c1q
8 | R N B _ K B N R 
7 | P P P _ _ P P P 
6 | _ _ _ _ _ _ _ _ 
5 | _ _ _ _ P _ _ _ 
4 | _ _ _ Q P _ _ _ 
3 | Q P _ _ _ _ _ _ 
2 | P B _ P _ P P P 
1 | R N Q _ K B N R 
-------------------
  | A B C D E F G H 

We are playing as White
Move history:
c2c3
d7d5
d1b3
d5d4
b3a3
d4c3
e2e3
c3c2
e3e4
e7e5
b2b3
d8d4
c1b2
c2c1q
8 | R N B _ K B N R 
7 | P P P _ _ P P P 
6 | _ _ _ _ _ _ _ _ 
5 | _ _ _ _ P _ _ _ 
4 | _ _ _ Q P _ _ _ 
3 | Q P _ _ _ _ _ _ 
2 | P B _ P _ P P P 
1 | R N Q _ K B N R 
-------------------
  | A B C D E F G H 

It is white's turn to play.
AI's move: b2c1
Move written: b2c1
[32;1m[Game] [0mPlayer's error code: 0
[32;1m[Game] [0mChecking move validity...
[32;1m[Board] [0mInitializing board...
[32;1m[Board] [0mLoading history file `championship/lizzie-iii-remmato-iii/history.csv`...
[32;1m[Board] [0mLoaded 14 move(s).
[32;1m[Board] [0mLoading move file `championship/lizzie-iii-remmato-iii/move.csv`...
[32;1m[Board] [0mWhite player is playing b2 to c1.
[32;1m[Board] [0m[5;1mWhite Bishop is taking Black Queen.[0m
[32;1m[Board] [0m
[32;1m[Board] [0m    a b c d e f g h 
[32;1m[Board] [0m  -------------------
[32;1m[Board] [0m8 ||[30;1mr[0m|[30;1mk[0m|[30;1mb[0m| |[30;1mK[0m|[30;1mb[0m|[30;1mk[0m|[30;1mr[0m|| 8
[32;1m[Board] [0m  -------------------
[32;1m[Board] [0m7 ||[30;1mp[0m|[30;1mp[0m|[30;1mp[0m|[7;1m [0m| |[30;1mp[0m|[30;1mp[0m|[30;1mp[0m|| 7
[32;1m[Board] [0m  -------------------
[32;1m[Board] [0m6 ||[7;1m [0m| |[7;1m [0m| |[7;1m [0m| |[7;1m [0m| || 6
[32;1m[Board] [0m  -------------------
[32;1m[Board] [0m5 || |[7;1m [0m| |[7;1m [0m|[30;1mp[0m|[7;1m [0m| |[7;1m [0m|| 5
[32;1m[Board] [0m  -------------------
[32;1m[Board] [0m4 ||[7;1m [0m| |[7;1m [0m|[30;1mQ[0m|[0;1mp[0m| |[7;1m [0m| || 4
[32;1m[Board] [0m  -------------------
[32;1m[Board] [0m3 ||[0;1mQ[0m|[0;1mp[0m| |[7;1m [0m| |[7;1m [0m| |[7;1m [0m|| 3
[32;1m[Board] [0m  -------------------
[32;1m[Board] [0m2 ||[0;1mp[0m| |[7;1m [0m|[0;1mp[0m|[7;1m [0m|[0;1mp[0m|[0;1mp[0m|[0;1mp[0m|| 2
[32;1m[Board] [0m  -------------------
[32;1m[Board] [0m1 ||[0;1mr[0m|[0;1mk[0m|[0;1mb[0m|[7;1m [0m|[0;1mK[0m|[0;1mb[0m|[0;1mk[0m|[0;1mr[0m|| 1
[32;1m[Board] [0m  -------------------
[32;1m[Board] [0m    a b c d e f g h
[32;1m[Board] [0m
[32;1m[Referee] [0mThis is the turn of the Black player...
Error: /home/julien/Pro/git/teaching/x/2024/remmato-iii/build/bin/../resources/openings does not exist or is not a directory
[32;1m[Game] [0mPlayer's error code: 0
[32;1m[Game] [0mChecking move validity...
[32;1m[Board] [0mInitializing board...
[32;1m[Board] [0mLoading history file `championship/lizzie-iii-remmato-iii/history.csv`...
[32;1m[Board] [0mLoaded 15 move(s).
[32;1m[Board] [0mLoading move file `championship/lizzie-iii-remmato-iii/move.csv`...
[32;1m[Board] [0mBlack player is playing d4 to e4.
[32;1m[Board] [0m[5;1mBlack Queen is taking White Pawn.[0m
[32;1m[Board] [0m
[32;1m[Board] [0m    a b c d e f g h 
[32;1m[Board] [0m  -------------------
[32;1m[Board] [0m8 ||[30;1mr[0m|[30;1mk[0m|[30;1mb[0m| |[30;1mK[0m|[30;1mb[0m|[30;1mk[0m|[30;1mr[0m|| 8
[32;1m[Board] [0m  -------------------
[32;1m[Board] [0m7 ||[30;1mp[0m|[30;1mp[0m|[30;1mp[0m|[7;1m [0m| |[30;1mp[0m|[30;1mp[0m|[30;1mp[0m|| 7
[32;1m[Board] [0m  -------------------
[32;1m[Board] [0m6 ||[7;1m [0m| |[7;1m [0m| |[7;1m [0m| |[7;1m [0m| || 6
[32;1m[Board] [0m  -------------------
[32;1m[Board] [0m5 || |[7;1m [0m| |[7;1m [0m|[30;1mp[0m|[7;1m [0m| |[7;1m [0m|| 5
[32;1m[Board] [0m  -------------------
[32;1m[Board] [0m4 ||[7;1m [0m| |[7;1m [0m| |[30;1mQ[0m| |[7;1m [0m| || 4
[32;1m[Board] [0m  -------------------
[32;1m[Board] [0m3 ||[0;1mQ[0m|[0;1mp[0m| |[7;1m [0m| |[7;1m [0m| |[7;1m [0m|| 3
[32;1m[Board] [0m  -------------------
[32;1m[Board] [0m2 ||[0;1mp[0m| |[7;1m [0m|[0;1mp[0m|[7;1m [0m|[0;1mp[0m|[0;1mp[0m|[0;1mp[0m|| 2
[32;1m[Board] [0m  -------------------
[32;1m[Board] [0m1 ||[0;1mr[0m|[0;1mk[0m|[0;1mb[0m|[7;1m [0m|[0;1mK[0m|[0;1mb[0m|[0;1mk[0m|[0;1mr[0m|| 1
[32;1m[Board] [0m  -------------------
[32;1m[Board] [0m    a b c d e f g h
[32;1m[Board] [0m
[32;1m[Referee] [0mThis is the turn of the White player...
[32;1m[Board] [0m[33;1m[WARNING][0m [5;1mWhite King in check![0m
[32;1m[Board] [0m[33;1m[WARNING][0m    Threatened by Black Queen (e4)
Input file: championship/lizzie-iii-remmato-iii/history.csv
Output file: championship/lizzie-iii-remmato-iii/move.csv
Turn of: white
Succesful move
c2c3
8 | R N B Q K B N R 
7 | P P P P P P P P 
6 | _ _ _ _ _ _ _ _ 
5 | _ _ _ _ _ _ _ _ 
4 | _ _ _ _ _ _ _ _ 
3 | _ _ P _ _ _ _ _ 
2 | P P _ P P P P P 
1 | R N B Q K B N R 
-------------------
  | A B C D E F G H 

Turn of: black
Succesful move
d7d5
8 | R N B Q K B N R 
7 | P P P _ P P P P 
6 | _ _ _ _ _ _ _ _ 
5 | _ _ _ P _ _ _ _ 
4 | _ _ _ _ _ _ _ _ 
3 | _ _ P _ _ _ _ _ 
2 | P P _ P P P P P 
1 | R N B Q K B N R 
-------------------
  | A B C D E F G H 

Turn of: white
Succesful move
d1b3
8 | R N B Q K B N R 
7 | P P P _ P P P P 
6 | _ _ _ _ _ _ _ _ 
5 | _ _ _ P _ _ _ _ 
4 | _ _ _ _ _ _ _ _ 
3 | _ Q P _ _ _ _ _ 
2 | P P _ P P P P P 
1 | R N B _ K B N R 
-------------------
  | A B C D E F G H 

Turn of: black
Succesful move
d5d4
8 | R N B Q K B N R 
7 | P P P _ P P P P 
6 | _ _ _ _ _ _ _ _ 
5 | _ _ _ _ _ _ _ _ 
4 | _ _ _ P _ _ _ _ 
3 | _ Q P _ _ _ _ _ 
2 | P P _ P P P P P 
1 | R N B _ K B N R 
-------------------
  | A B C D E F G H 

Turn of: white
Succesful move
b3a3
8 | R N B Q K B N R 
7 | P P P _ P P P P 
6 | _ _ _ _ _ _ _ _ 
5 | _ _ _ _ _ _ _ _ 
4 | _ _ _ P _ _ _ _ 
3 | Q _ P _ _ _ _ _ 
2 | P P _ P P P P P 
1 | R N B _ K B N R 
-------------------
  | A B C D E F G H 

Turn of: black
Succesful move
d4c3
8 | R N B Q K B N R 
7 | P P P _ P P P P 
6 | _ _ _ _ _ _ _ _ 
5 | _ _ _ _ _ _ _ _ 
4 | _ _ _ _ _ _ _ _ 
3 | Q _ P _ _ _ _ _ 
2 | P P _ P P P P P 
1 | R N B _ K B N R 
-------------------
  | A B C D E F G H 

Turn of: white
Succesful move
e2e3
8 | R N B Q K B N R 
7 | P P P _ P P P P 
6 | _ _ _ _ _ _ _ _ 
5 | _ _ _ _ _ _ _ _ 
4 | _ _ _ _ _ _ _ _ 
3 | Q _ P _ P _ _ _ 
2 | P P _ P _ P P P 
1 | R N B _ K B N R 
-------------------
  | A B C D E F G H 

Turn of: black
Succesful move
c3c2
8 | R N B Q K B N R 
7 | P P P _ P P P P 
6 | _ _ _ _ _ _ _ _ 
5 | _ _ _ _ _ _ _ _ 
4 | _ _ _ _ _ _ _ _ 
3 | Q _ _ _ P _ _ _ 
2 | P P P P _ P P P 
1 | R N B _ K B N R 
-------------------
  | A B C D E F G H 

Turn of: white
Succesful move
e3e4
8 | R N B Q K B N R 
7 | P P P _ P P P P 
6 | _ _ _ _ _ _ _ _ 
5 | _ _ _ _ _ _ _ _ 
4 | _ _ _ _ P _ _ _ 
3 | Q _ _ _ _ _ _ _ 
2 | P P P P _ P P P 
1 | R N B _ K B N R 
-------------------
  | A B C D E F G H 

Turn of: black
Succesful move
e7e5
8 | R N B Q K B N R 
7 | P P P _ _ P P P 
6 | _ _ _ _ _ _ _ _ 
5 | _ _ _ _ P _ _ _ 
4 | _ _ _ _ P _ _ _ 
3 | Q _ _ _ _ _ _ _ 
2 | P P P P _ P P P 
1 | R N B _ K B N R 
-------------------
  | A B C D E F G H 

Turn of: white
Succesful move
b2b3
8 | R N B Q K B N R 
7 | P P P _ _ P P P 
6 | _ _ _ _ _ _ _ _ 
5 | _ _ _ _ P _ _ _ 
4 | _ _ _ _ P _ _ _ 
3 | Q P _ _ _ _ _ _ 
2 | P _ P P _ P P P 
1 | R N B _ K B N R 
-------------------
  | A B C D E F G H 

Turn of: black
Succesful move
d8d4
8 | R N B _ K B N R 
7 | P P P _ _ P P P 
6 | _ _ _ _ _ _ _ _ 
5 | _ _ _ _ P _ _ _ 
4 | _ _ _ Q P _ _ _ 
3 | Q P _ _ _ _ _ _ 
2 | P _ P P _ P P P 
1 | R N B _ K B N R 
-------------------
  | A B C D E F G H 

Turn of: white
Succesful move
c1b2
8 | R N B _ K B N R 
7 | P P P _ _ P P P 
6 | _ _ _ _ _ _ _ _ 
5 | _ _ _ _ P _ _ _ 
4 | _ _ _ Q P _ _ _ 
3 | Q P _ _ _ _ _ _ 
2 | P B P P _ P P P 
1 | R N _ _ K B N R 
-------------------
  | A B C D E F G H 

Turn of: black
Succesful move
c2c1q
8 | R N B _ K B N R 
7 | P P P _ _ P P P 
6 | _ _ _ _ _ _ _ _ 
5 | _ _ _ _ P _ _ _ 
4 | _ _ _ Q P _ _ _ 
3 | Q P _ _ _ _ _ _ 
2 | P B _ P _ P P P 
1 | R N Q _ K B N R 
-------------------
  | A B C D E F G H 

Turn of: white
Succesful move
b2c1
8 | R N B _ K B N R 
7 | P P P _ _ P P P 
6 | _ _ _ _ _ _ _ _ 
5 | _ _ _ _ P _ _ _ 
4 | _ _ _ Q P _ _ _ 
3 | Q P _ _ _ _ _ _ 
2 | P _ _ P _ P P P 
1 | R N B _ K B N R 
-------------------
  | A B C D E F G H 

Turn of: black
Succesful move
d4e4
8 | R N B _ K B N R 
7 | P P P _ _ P P P 
6 | _ _ _ _ _ _ _ _ 
5 | _ _ _ _ P _ _ _ 
4 | _ _ _ _ Q _ _ _ 
3 | Q P _ _ _ _ _ _ 
2 | P _ _ P _ P P P 
1 | R N B _ K B N R 
-------------------
  | A B C D E F G H 

We are playing as White
Move history:
c2c3
d7d5
d1b3
d5d4
b3a3
d4c3
e2e3
c3c2
e3e4
e7e5
b2b3
d8d4
c1b2
c2c1q
b2c1
d4e4
8 | R N B _ K B N R 
7 | P P P _ _ P P P 
6 | _ _ _ _ _ _ _ _ 
5 | _ _ _ _ P _ _ _ 
4 | _ _ _ _ Q _ _ _ 
3 | Q P _ _ _ _ _ _ 
2 | P _ _ P _ P P P 
1 | R N B _ K B N R 
-------------------
  | A B C D E F G H 

It is white's turn to play.
AI's move: g1e2
Move written: g1e2
[32;1m[Game] [0mPlayer's error code: 0
[32;1m[Game] [0mChecking move validity...
[32;1m[Board] [0mInitializing board...
[32;1m[Board] [0mLoading history file `championship/lizzie-iii-remmato-iii/history.csv`...
[32;1m[Board] [0mLoaded 16 move(s).
[32;1m[Board] [0mLoading move file `championship/lizzie-iii-remmato-iii/move.csv`...
[32;1m[Board] [0mWhite player is playing g1 to e2.
[32;1m[Board] [0m
[32;1m[Board] [0m    a b c d e f g h 
[32;1m[Board] [0m  -------------------
[32;1m[Board] [0m8 ||[30;1mr[0m|[30;1mk[0m|[30;1mb[0m| |[30;1mK[0m|[30;1mb[0m|[30;1mk[0m|[30;1mr[0m|| 8
[32;1m[Board] [0m  -------------------
[32;1m[Board] [0m7 ||[30;1mp[0m|[30;1mp[0m|[30;1mp[0m|[7;1m [0m| |[30;1mp[0m|[30;1mp[0m|[30;1mp[0m|| 7
[32;1m[Board] [0m  -------------------
[32;1m[Board] [0m6 ||[7;1m [0m| |[7;1m [0m| |[7;1m [0m| |[7;1m [0m| || 6
[32;1m[Board] [0m  -------------------
[32;1m[Board] [0m5 || |[7;1m [0m| |[7;1m [0m|[30;1mp[0m|[7;1m [0m| |[7;1m [0m|| 5
[32;1m[Board] [0m  -------------------
[32;1m[Board] [0m4 ||[7;1m [0m| |[7;1m [0m| |[30;1mQ[0m| |[7;1m [0m| || 4
[32;1m[Board] [0m  -------------------
[32;1m[Board] [0m3 ||[0;1mQ[0m|[0;1mp[0m| |[7;1m [0m| |[7;1m [0m| |[7;1m [0m|| 3
[32;1m[Board] [0m  -------------------
[32;1m[Board] [0m2 ||[0;1mp[0m| |[7;1m [0m|[0;1mp[0m|[0;1mk[0m|[0;1mp[0m|[0;1mp[0m|[0;1mp[0m|| 2
[32;1m[Board] [0m  -------------------
[32;1m[Board] [0m1 ||[0;1mr[0m|[0;1mk[0m|[0;1mb[0m|[7;1m [0m|[0;1mK[0m|[0;1mb[0m| |[0;1mr[0m|| 1
[32;1m[Board] [0m  -------------------
[32;1m[Board] [0m    a b c d e f g h
[32;1m[Board] [0m
[32;1m[Referee] [0mThis is the turn of the Black player...
Error: /home/julien/Pro/git/teaching/x/2024/remmato-iii/build/bin/../resources/openings does not exist or is not a directory
[32;1m[Game] [0mPlayer's error code: 0
[32;1m[Game] [0mChecking move validity...
[32;1m[Board] [0mInitializing board...
[32;1m[Board] [0mLoading history file `championship/lizzie-iii-remmato-iii/history.csv`...
[32;1m[Board] [0mLoaded 17 move(s).
[32;1m[Board] [0mLoading move file `championship/lizzie-iii-remmato-iii/move.csv`...
[32;1m[Board] [0mBlack player is playing e4 to d3.
[32;1m[Board] [0m
[32;1m[Board] [0m    a b c d e f g h 
[32;1m[Board] [0m  -------------------
[32;1m[Board] [0m8 ||[30;1mr[0m|[30;1mk[0m|[30;1mb[0m| |[30;1mK[0m|[30;1mb[0m|[30;1mk[0m|[30;1mr[0m|| 8
[32;1m[Board] [0m  -------------------
[32;1m[Board] [0m7 ||[30;1mp[0m|[30;1mp[0m|[30;1mp[0m|[7;1m [0m| |[30;1mp[0m|[30;1mp[0m|[30;1mp[0m|| 7
[32;1m[Board] [0m  -------------------
[32;1m[Board] [0m6 ||[7;1m [0m| |[7;1m [0m| |[7;1m [0m| |[7;1m [0m| || 6
[32;1m[Board] [0m  -------------------
[32;1m[Board] [0m5 || |[7;1m [0m| |[7;1m [0m|[30;1mp[0m|[7;1m [0m| |[7;1m [0m|| 5
[32;1m[Board] [0m  -------------------
[32;1m[Board] [0m4 ||[7;1m [0m| |[7;1m [0m| |[7;1m [0m| |[7;1m [0m| || 4
[32;1m[Board] [0m  -------------------
[32;1m[Board] [0m3 ||[0;1mQ[0m|[0;1mp[0m| |[30;1mQ[0m| |[7;1m [0m| |[7;1m [0m|| 3
[32;1m[Board] [0m  -------------------
[32;1m[Board] [0m2 ||[0;1mp[0m| |[7;1m [0m|[0;1mp[0m|[0;1mk[0m|[0;1mp[0m|[0;1mp[0m|[0;1mp[0m|| 2
[32;1m[Board] [0m  -------------------
[32;1m[Board] [0m1 ||[0;1mr[0m|[0;1mk[0m|[0;1mb[0m|[7;1m [0m|[0;1mK[0m|[0;1mb[0m| |[0;1mr[0m|| 1
[32;1m[Board] [0m  -------------------
[32;1m[Board] [0m    a b c d e f g h
[32;1m[Board] [0m
[32;1m[Referee] [0mThis is the turn of the White player...
Input file: championship/lizzie-iii-remmato-iii/history.csv
Output file: championship/lizzie-iii-remmato-iii/move.csv
Turn of: white
Succesful move
c2c3
8 | R N B Q K B N R 
7 | P P P P P P P P 
6 | _ _ _ _ _ _ _ _ 
5 | _ _ _ _ _ _ _ _ 
4 | _ _ _ _ _ _ _ _ 
3 | _ _ P _ _ _ _ _ 
2 | P P _ P P P P P 
1 | R N B Q K B N R 
-------------------
  | A B C D E F G H 

Turn of: black
Succesful move
d7d5
8 | R N B Q K B N R 
7 | P P P _ P P P P 
6 | _ _ _ _ _ _ _ _ 
5 | _ _ _ P _ _ _ _ 
4 | _ _ _ _ _ _ _ _ 
3 | _ _ P _ _ _ _ _ 
2 | P P _ P P P P P 
1 | R N B Q K B N R 
-------------------
  | A B C D E F G H 

Turn of: white
Succesful move
d1b3
8 | R N B Q K B N R 
7 | P P P _ P P P P 
6 | _ _ _ _ _ _ _ _ 
5 | _ _ _ P _ _ _ _ 
4 | _ _ _ _ _ _ _ _ 
3 | _ Q P _ _ _ _ _ 
2 | P P _ P P P P P 
1 | R N B _ K B N R 
-------------------
  | A B C D E F G H 

Turn of: black
Succesful move
d5d4
8 | R N B Q K B N R 
7 | P P P _ P P P P 
6 | _ _ _ _ _ _ _ _ 
5 | _ _ _ _ _ _ _ _ 
4 | _ _ _ P _ _ _ _ 
3 | _ Q P _ _ _ _ _ 
2 | P P _ P P P P P 
1 | R N B _ K B N R 
-------------------
  | A B C D E F G H 

Turn of: white
Succesful move
b3a3
8 | R N B Q K B N R 
7 | P P P _ P P P P 
6 | _ _ _ _ _ _ _ _ 
5 | _ _ _ _ _ _ _ _ 
4 | _ _ _ P _ _ _ _ 
3 | Q _ P _ _ _ _ _ 
2 | P P _ P P P P P 
1 | R N B _ K B N R 
-------------------
  | A B C D E F G H 

Turn of: black
Succesful move
d4c3
8 | R N B Q K B N R 
7 | P P P _ P P P P 
6 | _ _ _ _ _ _ _ _ 
5 | _ _ _ _ _ _ _ _ 
4 | _ _ _ _ _ _ _ _ 
3 | Q _ P _ _ _ _ _ 
2 | P P _ P P P P P 
1 | R N B _ K B N R 
-------------------
  | A B C D E F G H 

Turn of: white
Succesful move
e2e3
8 | R N B Q K B N R 
7 | P P P _ P P P P 
6 | _ _ _ _ _ _ _ _ 
5 | _ _ _ _ _ _ _ _ 
4 | _ _ _ _ _ _ _ _ 
3 | Q _ P _ P _ _ _ 
2 | P P _ P _ P P P 
1 | R N B _ K B N R 
-------------------
  | A B C D E F G H 

Turn of: black
Succesful move
c3c2
8 | R N B Q K B N R 
7 | P P P _ P P P P 
6 | _ _ _ _ _ _ _ _ 
5 | _ _ _ _ _ _ _ _ 
4 | _ _ _ _ _ _ _ _ 
3 | Q _ _ _ P _ _ _ 
2 | P P P P _ P P P 
1 | R N B _ K B N R 
-------------------
  | A B C D E F G H 

Turn of: white
Succesful move
e3e4
8 | R N B Q K B N R 
7 | P P P _ P P P P 
6 | _ _ _ _ _ _ _ _ 
5 | _ _ _ _ _ _ _ _ 
4 | _ _ _ _ P _ _ _ 
3 | Q _ _ _ _ _ _ _ 
2 | P P P P _ P P P 
1 | R N B _ K B N R 
-------------------
  | A B C D E F G H 

Turn of: black
Succesful move
e7e5
8 | R N B Q K B N R 
7 | P P P _ _ P P P 
6 | _ _ _ _ _ _ _ _ 
5 | _ _ _ _ P _ _ _ 
4 | _ _ _ _ P _ _ _ 
3 | Q _ _ _ _ _ _ _ 
2 | P P P P _ P P P 
1 | R N B _ K B N R 
-------------------
  | A B C D E F G H 

Turn of: white
Succesful move
b2b3
8 | R N B Q K B N R 
7 | P P P _ _ P P P 
6 | _ _ _ _ _ _ _ _ 
5 | _ _ _ _ P _ _ _ 
4 | _ _ _ _ P _ _ _ 
3 | Q P _ _ _ _ _ _ 
2 | P _ P P _ P P P 
1 | R N B _ K B N R 
-------------------
  | A B C D E F G H 

Turn of: black
Succesful move
d8d4
8 | R N B _ K B N R 
7 | P P P _ _ P P P 
6 | _ _ _ _ _ _ _ _ 
5 | _ _ _ _ P _ _ _ 
4 | _ _ _ Q P _ _ _ 
3 | Q P _ _ _ _ _ _ 
2 | P _ P P _ P P P 
1 | R N B _ K B N R 
-------------------
  | A B C D E F G H 

Turn of: white
Succesful move
c1b2
8 | R N B _ K B N R 
7 | P P P _ _ P P P 
6 | _ _ _ _ _ _ _ _ 
5 | _ _ _ _ P _ _ _ 
4 | _ _ _ Q P _ _ _ 
3 | Q P _ _ _ _ _ _ 
2 | P B P P _ P P P 
1 | R N _ _ K B N R 
-------------------
  | A B C D E F G H 

Turn of: black
Succesful move
c2c1q
8 | R N B _ K B N R 
7 | P P P _ _ P P P 
6 | _ _ _ _ _ _ _ _ 
5 | _ _ _ _ P _ _ _ 
4 | _ _ _ Q P _ _ _ 
3 | Q P _ _ _ _ _ _ 
2 | P B _ P _ P P P 
1 | R N Q _ K B N R 
-------------------
  | A B C D E F G H 

Turn of: white
Succesful move
b2c1
8 | R N B _ K B N R 
7 | P P P _ _ P P P 
6 | _ _ _ _ _ _ _ _ 
5 | _ _ _ _ P _ _ _ 
4 | _ _ _ Q P _ _ _ 
3 | Q P _ _ _ _ _ _ 
2 | P _ _ P _ P P P 
1 | R N B _ K B N R 
-------------------
  | A B C D E F G H 

Turn of: black
Succesful move
d4e4
8 | R N B _ K B N R 
7 | P P P _ _ P P P 
6 | _ _ _ _ _ _ _ _ 
5 | _ _ _ _ P _ _ _ 
4 | _ _ _ _ Q _ _ _ 
3 | Q P _ _ _ _ _ _ 
2 | P _ _ P _ P P P 
1 | R N B _ K B N R 
-------------------
  | A B C D E F G H 

Turn of: white
Succesful move
g1e2
8 | R N B _ K B N R 
7 | P P P _ _ P P P 
6 | _ _ _ _ _ _ _ _ 
5 | _ _ _ _ P _ _ _ 
4 | _ _ _ _ Q _ _ _ 
3 | Q P _ _ _ _ _ _ 
2 | P _ _ P N P P P 
1 | R N B _ K B _ R 
-------------------
  | A B C D E F G H 

Turn of: black
Succesful move
e4d3
8 | R N B _ K B N R 
7 | P P P _ _ P P P 
6 | _ _ _ _ _ _ _ _ 
5 | _ _ _ _ P _ _ _ 
4 | _ _ _ _ _ _ _ _ 
3 | Q P _ Q _ _ _ _ 
2 | P _ _ P N P P P 
1 | R N B _ K B _ R 
-------------------
  | A B C D E F G H 

We are playing as White
Move history:
c2c3
d7d5
d1b3
d5d4
b3a3
d4c3
e2e3
c3c2
e3e4
e7e5
b2b3
d8d4
c1b2
c2c1q
b2c1
d4e4
g1e2
e4d3
8 | R N B _ K B N R 
7 | P P P _ _ P P P 
6 | _ _ _ _ _ _ _ _ 
5 | _ _ _ _ P _ _ _ 
4 | _ _ _ _ _ _ _ _ 
3 | Q P _ Q _ _ _ _ 
2 | P _ _ P N P P P 
1 | R N B _ K B _ R 
-------------------
  | A B C D E F G H 

It is white's turn to play.
AI's move: e2g3
Move written: e2g3
[32;1m[Game] [0mPlayer's error code: 0
[32;1m[Game] [0mChecking move validity...
[32;1m[Board] [0mInitializing board...
[32;1m[Board] [0mLoading history file `championship/lizzie-iii-remmato-iii/history.csv`...
[32;1m[Board] [0mLoaded 18 move(s).
[32;1m[Board] [0mLoading move file `championship/lizzie-iii-remmato-iii/move.csv`...
[32;1m[Board] [0mWhite player is playing e2 to g3.
[32;1m[Board] [0m
[32;1m[Board] [0m    a b c d e f g h 
[32;1m[Board] [0m  -------------------
[32;1m[Board] [0m8 ||[30;1mr[0m|[30;1mk[0m|[30;1mb[0m| |[30;1mK[0m|[30;1mb[0m|[30;1mk[0m|[30;1mr[0m|| 8
[32;1m[Board] [0m  -------------------
[32;1m[Board] [0m7 ||[30;1mp[0m|[30;1mp[0m|[30;1mp[0m|[7;1m [0m| |[30;1mp[0m|[30;1mp[0m|[30;1mp[0m|| 7
[32;1m[Board] [0m  -------------------
[32;1m[Board] [0m6 ||[7;1m [0m| |[7;1m [0m| |[7;1m [0m| |[7;1m [0m| || 6
[32;1m[Board] [0m  -------------------
[32;1m[Board] [0m5 || |[7;1m [0m| |[7;1m [0m|[30;1mp[0m|[7;1m [0m| |[7;1m [0m|| 5
[32;1m[Board] [0m  -------------------
[32;1m[Board] [0m4 ||[7;1m [0m| |[7;1m [0m| |[7;1m [0m| |[7;1m [0m| || 4
[32;1m[Board] [0m  -------------------
[32;1m[Board] [0m3 ||[0;1mQ[0m|[0;1mp[0m| |[30;1mQ[0m| |[7;1m [0m|[0;1mk[0m|[7;1m [0m|| 3
[32;1m[Board] [0m  -------------------
[32;1m[Board] [0m2 ||[0;1mp[0m| |[7;1m [0m|[0;1mp[0m|[7;1m [0m|[0;1mp[0m|[0;1mp[0m|[0;1mp[0m|| 2
[32;1m[Board] [0m  -------------------
[32;1m[Board] [0m1 ||[0;1mr[0m|[0;1mk[0m|[0;1mb[0m|[7;1m [0m|[0;1mK[0m|[0;1mb[0m| |[0;1mr[0m|| 1
[32;1m[Board] [0m  -------------------
[32;1m[Board] [0m    a b c d e f g h
[32;1m[Board] [0m
[32;1m[Referee] [0mThis is the turn of the Black player...
Error: /home/julien/Pro/git/teaching/x/2024/remmato-iii/build/bin/../resources/openings does not exist or is not a directory
[32;1m[Game] [0mPlayer's error code: 0
[32;1m[Game] [0mChecking move validity...
[32;1m[Board] [0mInitializing board...
[32;1m[Board] [0mLoading history file `championship/lizzie-iii-remmato-iii/history.csv`...
[32;1m[Board] [0mLoaded 19 move(s).
[32;1m[Board] [0mLoading move file `championship/lizzie-iii-remmato-iii/move.csv`...
[32;1m[Board] [0mBlack player is playing d3 to c2.
[32;1m[Board] [0m
[32;1m[Board] [0m    a b c d e f g h 
[32;1m[Board] [0m  -------------------
[32;1m[Board] [0m8 ||[30;1mr[0m|[30;1mk[0m|[30;1mb[0m| |[30;1mK[0m|[30;1mb[0m|[30;1mk[0m|[30;1mr[0m|| 8
[32;1m[Board] [0m  -------------------
[32;1m[Board] [0m7 ||[30;1mp[0m|[30;1mp[0m|[30;1mp[0m|[7;1m [0m| |[30;1mp[0m|[30;1mp[0m|[30;1mp[0m|| 7
[32;1m[Board] [0m  -------------------
[32;1m[Board] [0m6 ||[7;1m [0m| |[7;1m [0m| |[7;1m [0m| |[7;1m [0m| || 6
[32;1m[Board] [0m  -------------------
[32;1m[Board] [0m5 || |[7;1m [0m| |[7;1m [0m|[30;1mp[0m|[7;1m [0m| |[7;1m [0m|| 5
[32;1m[Board] [0m  -------------------
[32;1m[Board] [0m4 ||[7;1m [0m| |[7;1m [0m| |[7;1m [0m| |[7;1m [0m| || 4
[32;1m[Board] [0m  -------------------
[32;1m[Board] [0m3 ||[0;1mQ[0m|[0;1mp[0m| |[7;1m [0m| |[7;1m [0m|[0;1mk[0m|[7;1m [0m|| 3
[32;1m[Board] [0m  -------------------
[32;1m[Board] [0m2 ||[0;1mp[0m| |[30;1mQ[0m|[0;1mp[0m|[7;1m [0m|[0;1mp[0m|[0;1mp[0m|[0;1mp[0m|| 2
[32;1m[Board] [0m  -------------------
[32;1m[Board] [0m1 ||[0;1mr[0m|[0;1mk[0m|[0;1mb[0m|[7;1m [0m|[0;1mK[0m|[0;1mb[0m| |[0;1mr[0m|| 1
[32;1m[Board] [0m  -------------------
[32;1m[Board] [0m    a b c d e f g h
[32;1m[Board] [0m
[32;1m[Referee] [0mThis is the turn of the White player...
Input file: championship/lizzie-iii-remmato-iii/history.csv
Output file: championship/lizzie-iii-remmato-iii/move.csv
Turn of: white
Succesful move
c2c3
8 | R N B Q K B N R 
7 | P P P P P P P P 
6 | _ _ _ _ _ _ _ _ 
5 | _ _ _ _ _ _ _ _ 
4 | _ _ _ _ _ _ _ _ 
3 | _ _ P _ _ _ _ _ 
2 | P P _ P P P P P 
1 | R N B Q K B N R 
-------------------
  | A B C D E F G H 

Turn of: black
Succesful move
d7d5
8 | R N B Q K B N R 
7 | P P P _ P P P P 
6 | _ _ _ _ _ _ _ _ 
5 | _ _ _ P _ _ _ _ 
4 | _ _ _ _ _ _ _ _ 
3 | _ _ P _ _ _ _ _ 
2 | P P _ P P P P P 
1 | R N B Q K B N R 
-------------------
  | A B C D E F G H 

Turn of: white
Succesful move
d1b3
8 | R N B Q K B N R 
7 | P P P _ P P P P 
6 | _ _ _ _ _ _ _ _ 
5 | _ _ _ P _ _ _ _ 
4 | _ _ _ _ _ _ _ _ 
3 | _ Q P _ _ _ _ _ 
2 | P P _ P P P P P 
1 | R N B _ K B N R 
-------------------
  | A B C D E F G H 

Turn of: black
Succesful move
d5d4
8 | R N B Q K B N R 
7 | P P P _ P P P P 
6 | _ _ _ _ _ _ _ _ 
5 | _ _ _ _ _ _ _ _ 
4 | _ _ _ P _ _ _ _ 
3 | _ Q P _ _ _ _ _ 
2 | P P _ P P P P P 
1 | R N B _ K B N R 
-------------------
  | A B C D E F G H 

Turn of: white
Succesful move
b3a3
8 | R N B Q K B N R 
7 | P P P _ P P P P 
6 | _ _ _ _ _ _ _ _ 
5 | _ _ _ _ _ _ _ _ 
4 | _ _ _ P _ _ _ _ 
3 | Q _ P _ _ _ _ _ 
2 | P P _ P P P P P 
1 | R N B _ K B N R 
-------------------
  | A B C D E F G H 

Turn of: black
Succesful move
d4c3
8 | R N B Q K B N R 
7 | P P P _ P P P P 
6 | _ _ _ _ _ _ _ _ 
5 | _ _ _ _ _ _ _ _ 
4 | _ _ _ _ _ _ _ _ 
3 | Q _ P _ _ _ _ _ 
2 | P P _ P P P P P 
1 | R N B _ K B N R 
-------------------
  | A B C D E F G H 

Turn of: white
Succesful move
e2e3
8 | R N B Q K B N R 
7 | P P P _ P P P P 
6 | _ _ _ _ _ _ _ _ 
5 | _ _ _ _ _ _ _ _ 
4 | _ _ _ _ _ _ _ _ 
3 | Q _ P _ P _ _ _ 
2 | P P _ P _ P P P 
1 | R N B _ K B N R 
-------------------
  | A B C D E F G H 

Turn of: black
Succesful move
c3c2
8 | R N B Q K B N R 
7 | P P P _ P P P P 
6 | _ _ _ _ _ _ _ _ 
5 | _ _ _ _ _ _ _ _ 
4 | _ _ _ _ _ _ _ _ 
3 | Q _ _ _ P _ _ _ 
2 | P P P P _ P P P 
1 | R N B _ K B N R 
-------------------
  | A B C D E F G H 

Turn of: white
Succesful move
e3e4
8 | R N B Q K B N R 
7 | P P P _ P P P P 
6 | _ _ _ _ _ _ _ _ 
5 | _ _ _ _ _ _ _ _ 
4 | _ _ _ _ P _ _ _ 
3 | Q _ _ _ _ _ _ _ 
2 | P P P P _ P P P 
1 | R N B _ K B N R 
-------------------
  | A B C D E F G H 

Turn of: black
Succesful move
e7e5
8 | R N B Q K B N R 
7 | P P P _ _ P P P 
6 | _ _ _ _ _ _ _ _ 
5 | _ _ _ _ P _ _ _ 
4 | _ _ _ _ P _ _ _ 
3 | Q _ _ _ _ _ _ _ 
2 | P P P P _ P P P 
1 | R N B _ K B N R 
-------------------
  | A B C D E F G H 

Turn of: white
Succesful move
b2b3
8 | R N B Q K B N R 
7 | P P P _ _ P P P 
6 | _ _ _ _ _ _ _ _ 
5 | _ _ _ _ P _ _ _ 
4 | _ _ _ _ P _ _ _ 
3 | Q P _ _ _ _ _ _ 
2 | P _ P P _ P P P 
1 | R N B _ K B N R 
-------------------
  | A B C D E F G H 

Turn of: black
Succesful move
d8d4
8 | R N B _ K B N R 
7 | P P P _ _ P P P 
6 | _ _ _ _ _ _ _ _ 
5 | _ _ _ _ P _ _ _ 
4 | _ _ _ Q P _ _ _ 
3 | Q P _ _ _ _ _ _ 
2 | P _ P P _ P P P 
1 | R N B _ K B N R 
-------------------
  | A B C D E F G H 

Turn of: white
Succesful move
c1b2
8 | R N B _ K B N R 
7 | P P P _ _ P P P 
6 | _ _ _ _ _ _ _ _ 
5 | _ _ _ _ P _ _ _ 
4 | _ _ _ Q P _ _ _ 
3 | Q P _ _ _ _ _ _ 
2 | P B P P _ P P P 
1 | R N _ _ K B N R 
-------------------
  | A B C D E F G H 

Turn of: black
Succesful move
c2c1q
8 | R N B _ K B N R 
7 | P P P _ _ P P P 
6 | _ _ _ _ _ _ _ _ 
5 | _ _ _ _ P _ _ _ 
4 | _ _ _ Q P _ _ _ 
3 | Q P _ _ _ _ _ _ 
2 | P B _ P _ P P P 
1 | R N Q _ K B N R 
-------------------
  | A B C D E F G H 

Turn of: white
Succesful move
b2c1
8 | R N B _ K B N R 
7 | P P P _ _ P P P 
6 | _ _ _ _ _ _ _ _ 
5 | _ _ _ _ P _ _ _ 
4 | _ _ _ Q P _ _ _ 
3 | Q P _ _ _ _ _ _ 
2 | P _ _ P _ P P P 
1 | R N B _ K B N R 
-------------------
  | A B C D E F G H 

Turn of: black
Succesful move
d4e4
8 | R N B _ K B N R 
7 | P P P _ _ P P P 
6 | _ _ _ _ _ _ _ _ 
5 | _ _ _ _ P _ _ _ 
4 | _ _ _ _ Q _ _ _ 
3 | Q P _ _ _ _ _ _ 
2 | P _ _ P _ P P P 
1 | R N B _ K B N R 
-------------------
  | A B C D E F G H 

Turn of: white
Succesful move
g1e2
8 | R N B _ K B N R 
7 | P P P _ _ P P P 
6 | _ _ _ _ _ _ _ _ 
5 | _ _ _ _ P _ _ _ 
4 | _ _ _ _ Q _ _ _ 
3 | Q P _ _ _ _ _ _ 
2 | P _ _ P N P P P 
1 | R N B _ K B _ R 
-------------------
  | A B C D E F G H 

Turn of: black
Succesful move
e4d3
8 | R N B _ K B N R 
7 | P P P _ _ P P P 
6 | _ _ _ _ _ _ _ _ 
5 | _ _ _ _ P _ _ _ 
4 | _ _ _ _ _ _ _ _ 
3 | Q P _ Q _ _ _ _ 
2 | P _ _ P N P P P 
1 | R N B _ K B _ R 
-------------------
  | A B C D E F G H 

Turn of: white
Succesful move
e2g3
8 | R N B _ K B N R 
7 | P P P _ _ P P P 
6 | _ _ _ _ _ _ _ _ 
5 | _ _ _ _ P _ _ _ 
4 | _ _ _ _ _ _ _ _ 
3 | Q P _ Q _ _ N _ 
2 | P _ _ P _ P P P 
1 | R N B _ K B _ R 
-------------------
  | A B C D E F G H 

Turn of: black
Succesful move
d3c2
8 | R N B _ K B N R 
7 | P P P _ _ P P P 
6 | _ _ _ _ _ _ _ _ 
5 | _ _ _ _ P _ _ _ 
4 | _ _ _ _ _ _ _ _ 
3 | Q P _ _ _ _ N _ 
2 | P _ Q P _ P P P 
1 | R N B _ K B _ R 
-------------------
  | A B C D E F G H 

We are playing as White
Move history:
c2c3
d7d5
d1b3
d5d4
b3a3
d4c3
e2e3
c3c2
e3e4
e7e5
b2b3
d8d4
c1b2
c2c1q
b2c1
d4e4
g1e2
e4d3
e2g3
d3c2
8 | R N B _ K B N R 
7 | P P P _ _ P P P 
6 | _ _ _ _ _ _ _ _ 
5 | _ _ _ _ P _ _ _ 
4 | _ _ _ _ _ _ _ _ 
3 | Q P _ _ _ _ N _ 
2 | P _ Q P _ P P P 
1 | R N B _ K B _ R 
-------------------
  | A B C D E F G H 

It is white's turn to play.
AI's move: h2h4
Move written: h2h4
[32;1m[Game] [0mPlayer's error code: 0
[32;1m[Game] [0mChecking move validity...
[32;1m[Board] [0mInitializing board...
[32;1m[Board] [0mLoading history file `championship/lizzie-iii-remmato-iii/history.csv`...
[32;1m[Board] [0mLoaded 20 move(s).
[32;1m[Board] [0mLoading move file `championship/lizzie-iii-remmato-iii/move.csv`...
[32;1m[Board] [0mWhite player is playing h2 to h4.
[32;1m[Board] [0m
[32;1m[Board] [0m    a b c d e f g h 
[32;1m[Board] [0m  -------------------
[32;1m[Board] [0m8 ||[30;1mr[0m|[30;1mk[0m|[30;1mb[0m| |[30;1mK[0m|[30;1mb[0m|[30;1mk[0m|[30;1mr[0m|| 8
[32;1m[Board] [0m  -------------------
[32;1m[Board] [0m7 ||[30;1mp[0m|[30;1mp[0m|[30;1mp[0m|[7;1m [0m| |[30;1mp[0m|[30;1mp[0m|[30;1mp[0m|| 7
[32;1m[Board] [0m  -------------------
[32;1m[Board] [0m6 ||[7;1m [0m| |[7;1m [0m| |[7;1m [0m| |[7;1m [0m| || 6
[32;1m[Board] [0m  -------------------
[32;1m[Board] [0m5 || |[7;1m [0m| |[7;1m [0m|[30;1mp[0m|[7;1m [0m| |[7;1m [0m|| 5
[32;1m[Board] [0m  -------------------
[32;1m[Board] [0m4 ||[7;1m [0m| |[7;1m [0m| |[7;1m [0m| |[7;1m [0m|[0;1mp[0m|| 4
[32;1m[Board] [0m  -------------------
[32;1m[Board] [0m3 ||[0;1mQ[0m|[0;1mp[0m| |[7;1m [0m| |[7;1m [0m|[0;1mk[0m|[7;1m [0m|| 3
[32;1m[Board] [0m  -------------------
[32;1m[Board] [0m2 ||[0;1mp[0m| |[30;1mQ[0m|[0;1mp[0m|[7;1m [0m|[0;1mp[0m|[0;1mp[0m| || 2
[32;1m[Board] [0m  -------------------
[32;1m[Board] [0m1 ||[0;1mr[0m|[0;1mk[0m|[0;1mb[0m|[7;1m [0m|[0;1mK[0m|[0;1mb[0m| |[0;1mr[0m|| 1
[32;1m[Board] [0m  -------------------
[32;1m[Board] [0m    a b c d e f g h
[32;1m[Board] [0m
[32;1m[Referee] [0mThis is the turn of the Black player...
Error: /home/julien/Pro/git/teaching/x/2024/remmato-iii/build/bin/../resources/openings does not exist or is not a directory
[32;1m[Game] [0mPlayer's error code: 0
[32;1m[Game] [0mChecking move validity...
[32;1m[Board] [0mInitializing board...
[32;1m[Board] [0mLoading history file `championship/lizzie-iii-remmato-iii/history.csv`...
[32;1m[Board] [0mLoaded 21 move(s).
[32;1m[Board] [0mLoading move file `championship/lizzie-iii-remmato-iii/move.csv`...
[32;1m[Board] [0mBlack player is playing e5 to e4.
[32;1m[Board] [0m
[32;1m[Board] [0m    a b c d e f g h 
[32;1m[Board] [0m  -------------------
[32;1m[Board] [0m8 ||[30;1mr[0m|[30;1mk[0m|[30;1mb[0m| |[30;1mK[0m|[30;1mb[0m|[30;1mk[0m|[30;1mr[0m|| 8
[32;1m[Board] [0m  -------------------
[32;1m[Board] [0m7 ||[30;1mp[0m|[30;1mp[0m|[30;1mp[0m|[7;1m [0m| |[30;1mp[0m|[30;1mp[0m|[30;1mp[0m|| 7
[32;1m[Board] [0m  -------------------
[32;1m[Board] [0m6 ||[7;1m [0m| |[7;1m [0m| |[7;1m [0m| |[7;1m [0m| || 6
[32;1m[Board] [0m  -------------------
[32;1m[Board] [0m5 || |[7;1m [0m| |[7;1m [0m| |[7;1m [0m| |[7;1m [0m|| 5
[32;1m[Board] [0m  -------------------
[32;1m[Board] [0m4 ||[7;1m [0m| |[7;1m [0m| |[30;1mp[0m| |[7;1m [0m|[0;1mp[0m|| 4
[32;1m[Board] [0m  -------------------
[32;1m[Board] [0m3 ||[0;1mQ[0m|[0;1mp[0m| |[7;1m [0m| |[7;1m [0m|[0;1mk[0m|[7;1m [0m|| 3
[32;1m[Board] [0m  -------------------
[32;1m[Board] [0m2 ||[0;1mp[0m| |[30;1mQ[0m|[0;1mp[0m|[7;1m [0m|[0;1mp[0m|[0;1mp[0m| || 2
[32;1m[Board] [0m  -------------------
[32;1m[Board] [0m1 ||[0;1mr[0m|[0;1mk[0m|[0;1mb[0m|[7;1m [0m|[0;1mK[0m|[0;1mb[0m| |[0;1mr[0m|| 1
[32;1m[Board] [0m  -------------------
[32;1m[Board] [0m    a b c d e f g h
[32;1m[Board] [0m
[32;1m[Referee] [0mThis is the turn of the White player...
Input file: championship/lizzie-iii-remmato-iii/history.csv
Output file: championship/lizzie-iii-remmato-iii/move.csv
Turn of: white
Succesful move
c2c3
8 | R N B Q K B N R 
7 | P P P P P P P P 
6 | _ _ _ _ _ _ _ _ 
5 | _ _ _ _ _ _ _ _ 
4 | _ _ _ _ _ _ _ _ 
3 | _ _ P _ _ _ _ _ 
2 | P P _ P P P P P 
1 | R N B Q K B N R 
-------------------
  | A B C D E F G H 

Turn of: black
Succesful move
d7d5
8 | R N B Q K B N R 
7 | P P P _ P P P P 
6 | _ _ _ _ _ _ _ _ 
5 | _ _ _ P _ _ _ _ 
4 | _ _ _ _ _ _ _ _ 
3 | _ _ P _ _ _ _ _ 
2 | P P _ P P P P P 
1 | R N B Q K B N R 
-------------------
  | A B C D E F G H 

Turn of: white
Succesful move
d1b3
8 | R N B Q K B N R 
7 | P P P _ P P P P 
6 | _ _ _ _ _ _ _ _ 
5 | _ _ _ P _ _ _ _ 
4 | _ _ _ _ _ _ _ _ 
3 | _ Q P _ _ _ _ _ 
2 | P P _ P P P P P 
1 | R N B _ K B N R 
-------------------
  | A B C D E F G H 

Turn of: black
Succesful move
d5d4
8 | R N B Q K B N R 
7 | P P P _ P P P P 
6 | _ _ _ _ _ _ _ _ 
5 | _ _ _ _ _ _ _ _ 
4 | _ _ _ P _ _ _ _ 
3 | _ Q P _ _ _ _ _ 
2 | P P _ P P P P P 
1 | R N B _ K B N R 
-------------------
  | A B C D E F G H 

Turn of: white
Succesful move
b3a3
8 | R N B Q K B N R 
7 | P P P _ P P P P 
6 | _ _ _ _ _ _ _ _ 
5 | _ _ _ _ _ _ _ _ 
4 | _ _ _ P _ _ _ _ 
3 | Q _ P _ _ _ _ _ 
2 | P P _ P P P P P 
1 | R N B _ K B N R 
-------------------
  | A B C D E F G H 

Turn of: black
Succesful move
d4c3
8 | R N B Q K B N R 
7 | P P P _ P P P P 
6 | _ _ _ _ _ _ _ _ 
5 | _ _ _ _ _ _ _ _ 
4 | _ _ _ _ _ _ _ _ 
3 | Q _ P _ _ _ _ _ 
2 | P P _ P P P P P 
1 | R N B _ K B N R 
-------------------
  | A B C D E F G H 

Turn of: white
Succesful move
e2e3
8 | R N B Q K B N R 
7 | P P P _ P P P P 
6 | _ _ _ _ _ _ _ _ 
5 | _ _ _ _ _ _ _ _ 
4 | _ _ _ _ _ _ _ _ 
3 | Q _ P _ P _ _ _ 
2 | P P _ P _ P P P 
1 | R N B _ K B N R 
-------------------
  | A B C D E F G H 

Turn of: black
Succesful move
c3c2
8 | R N B Q K B N R 
7 | P P P _ P P P P 
6 | _ _ _ _ _ _ _ _ 
5 | _ _ _ _ _ _ _ _ 
4 | _ _ _ _ _ _ _ _ 
3 | Q _ _ _ P _ _ _ 
2 | P P P P _ P P P 
1 | R N B _ K B N R 
-------------------
  | A B C D E F G H 

Turn of: white
Succesful move
e3e4
8 | R N B Q K B N R 
7 | P P P _ P P P P 
6 | _ _ _ _ _ _ _ _ 
5 | _ _ _ _ _ _ _ _ 
4 | _ _ _ _ P _ _ _ 
3 | Q _ _ _ _ _ _ _ 
2 | P P P P _ P P P 
1 | R N B _ K B N R 
-------------------
  | A B C D E F G H 

Turn of: black
Succesful move
e7e5
8 | R N B Q K B N R 
7 | P P P _ _ P P P 
6 | _ _ _ _ _ _ _ _ 
5 | _ _ _ _ P _ _ _ 
4 | _ _ _ _ P _ _ _ 
3 | Q _ _ _ _ _ _ _ 
2 | P P P P _ P P P 
1 | R N B _ K B N R 
-------------------
  | A B C D E F G H 

Turn of: white
Succesful move
b2b3
8 | R N B Q K B N R 
7 | P P P _ _ P P P 
6 | _ _ _ _ _ _ _ _ 
5 | _ _ _ _ P _ _ _ 
4 | _ _ _ _ P _ _ _ 
3 | Q P _ _ _ _ _ _ 
2 | P _ P P _ P P P 
1 | R N B _ K B N R 
-------------------
  | A B C D E F G H 

Turn of: black
Succesful move
d8d4
8 | R N B _ K B N R 
7 | P P P _ _ P P P 
6 | _ _ _ _ _ _ _ _ 
5 | _ _ _ _ P _ _ _ 
4 | _ _ _ Q P _ _ _ 
3 | Q P _ _ _ _ _ _ 
2 | P _ P P _ P P P 
1 | R N B _ K B N R 
-------------------
  | A B C D E F G H 

Turn of: white
Succesful move
c1b2
8 | R N B _ K B N R 
7 | P P P _ _ P P P 
6 | _ _ _ _ _ _ _ _ 
5 | _ _ _ _ P _ _ _ 
4 | _ _ _ Q P _ _ _ 
3 | Q P _ _ _ _ _ _ 
2 | P B P P _ P P P 
1 | R N _ _ K B N R 
-------------------
  | A B C D E F G H 

Turn of: black
Succesful move
c2c1q
8 | R N B _ K B N R 
7 | P P P _ _ P P P 
6 | _ _ _ _ _ _ _ _ 
5 | _ _ _ _ P _ _ _ 
4 | _ _ _ Q P _ _ _ 
3 | Q P _ _ _ _ _ _ 
2 | P B _ P _ P P P 
1 | R N Q _ K B N R 
-------------------
  | A B C D E F G H 

Turn of: white
Succesful move
b2c1
8 | R N B _ K B N R 
7 | P P P _ _ P P P 
6 | _ _ _ _ _ _ _ _ 
5 | _ _ _ _ P _ _ _ 
4 | _ _ _ Q P _ _ _ 
3 | Q P _ _ _ _ _ _ 
2 | P _ _ P _ P P P 
1 | R N B _ K B N R 
-------------------
  | A B C D E F G H 

Turn of: black
Succesful move
d4e4
8 | R N B _ K B N R 
7 | P P P _ _ P P P 
6 | _ _ _ _ _ _ _ _ 
5 | _ _ _ _ P _ _ _ 
4 | _ _ _ _ Q _ _ _ 
3 | Q P _ _ _ _ _ _ 
2 | P _ _ P _ P P P 
1 | R N B _ K B N R 
-------------------
  | A B C D E F G H 

Turn of: white
Succesful move
g1e2
8 | R N B _ K B N R 
7 | P P P _ _ P P P 
6 | _ _ _ _ _ _ _ _ 
5 | _ _ _ _ P _ _ _ 
4 | _ _ _ _ Q _ _ _ 
3 | Q P _ _ _ _ _ _ 
2 | P _ _ P N P P P 
1 | R N B _ K B _ R 
-------------------
  | A B C D E F G H 

Turn of: black
Succesful move
e4d3
8 | R N B _ K B N R 
7 | P P P _ _ P P P 
6 | _ _ _ _ _ _ _ _ 
5 | _ _ _ _ P _ _ _ 
4 | _ _ _ _ _ _ _ _ 
3 | Q P _ Q _ _ _ _ 
2 | P _ _ P N P P P 
1 | R N B _ K B _ R 
-------------------
  | A B C D E F G H 

Turn of: white
Succesful move
e2g3
8 | R N B _ K B N R 
7 | P P P _ _ P P P 
6 | _ _ _ _ _ _ _ _ 
5 | _ _ _ _ P _ _ _ 
4 | _ _ _ _ _ _ _ _ 
3 | Q P _ Q _ _ N _ 
2 | P _ _ P _ P P P 
1 | R N B _ K B _ R 
-------------------
  | A B C D E F G H 

Turn of: black
Succesful move
d3c2
8 | R N B _ K B N R 
7 | P P P _ _ P P P 
6 | _ _ _ _ _ _ _ _ 
5 | _ _ _ _ P _ _ _ 
4 | _ _ _ _ _ _ _ _ 
3 | Q P _ _ _ _ N _ 
2 | P _ Q P _ P P P 
1 | R N B _ K B _ R 
-------------------
  | A B C D E F G H 

Turn of: white
Succesful move
h2h4
8 | R N B _ K B N R 
[...]
[32;1m[Board] [0m  -------------------
[32;1m[Board] [0m    a b c d e f g h
[32;1m[Board] [0m
[32;1m[Referee] [0mThis is the turn of the White player...
[32;1m[Board] [0m[33;1m[WARNING][0m [5;1mWhite King in check![0m
[32;1m[Board] [0m[33;1m[WARNING][0m    Threatened by Black Queen (b2)
Input file: championship/lizzie-iii-remmato-iii/history.csv
Output file: championship/lizzie-iii-remmato-iii/move.csv
Turn of: white
Succesful move
c2c3
8 | R N B Q K B N R 
7 | P P P P P P P P 
6 | _ _ _ _ _ _ _ _ 
5 | _ _ _ _ _ _ _ _ 
4 | _ _ _ _ _ _ _ _ 
3 | _ _ P _ _ _ _ _ 
2 | P P _ P P P P P 
1 | R N B Q K B N R 
-------------------
  | A B C D E F G H 

Turn of: black
Succesful move
d7d5
8 | R N B Q K B N R 
7 | P P P _ P P P P 
6 | _ _ _ _ _ _ _ _ 
5 | _ _ _ P _ _ _ _ 
4 | _ _ _ _ _ _ _ _ 
3 | _ _ P _ _ _ _ _ 
2 | P P _ P P P P P 
1 | R N B Q K B N R 
-------------------
  | A B C D E F G H 

Turn of: white
Succesful move
d1b3
8 | R N B Q K B N R 
7 | P P P _ P P P P 
6 | _ _ _ _ _ _ _ _ 
5 | _ _ _ P _ _ _ _ 
4 | _ _ _ _ _ _ _ _ 
3 | _ Q P _ _ _ _ _ 
2 | P P _ P P P P P 
1 | R N B _ K B N R 
-------------------
  | A B C D E F G H 

Turn of: black
Succesful move
d5d4
8 | R N B Q K B N R 
7 | P P P _ P P P P 
6 | _ _ _ _ _ _ _ _ 
5 | _ _ _ _ _ _ _ _ 
4 | _ _ _ P _ _ _ _ 
3 | _ Q P _ _ _ _ _ 
2 | P P _ P P P P P 
1 | R N B _ K B N R 
-------------------
  | A B C D E F G H 

Turn of: white
Succesful move
b3a3
8 | R N B Q K B N R 
7 | P P P _ P P P P 
6 | _ _ _ _ _ _ _ _ 
5 | _ _ _ _ _ _ _ _ 
4 | _ _ _ P _ _ _ _ 
3 | Q _ P _ _ _ _ _ 
2 | P P _ P P P P P 
1 | R N B _ K B N R 
-------------------
  | A B C D E F G H 

Turn of: black
Succesful move
d4c3
8 | R N B Q K B N R 
7 | P P P _ P P P P 
6 | _ _ _ _ _ _ _ _ 
5 | _ _ _ _ _ _ _ _ 
4 | _ _ _ _ _ _ _ _ 
3 | Q _ P _ _ _ _ _ 
2 | P P _ P P P P P 
1 | R N B _ K B N R 
-------------------
  | A B C D E F G H 

Turn of: white
Succesful move
e2e3
8 | R N B Q K B N R 
7 | P P P _ P P P P 
6 | _ _ _ _ _ _ _ _ 
5 | _ _ _ _ _ _ _ _ 
4 | _ _ _ _ _ _ _ _ 
3 | Q _ P _ P _ _ _ 
2 | P P _ P _ P P P 
1 | R N B _ K B N R 
-------------------
  | A B C D E F G H 

Turn of: black
Succesful move
c3c2
8 | R N B Q K B N R 
7 | P P P _ P P P P 
6 | _ _ _ _ _ _ _ _ 
5 | _ _ _ _ _ _ _ _ 
4 | _ _ _ _ _ _ _ _ 
3 | Q _ _ _ P _ _ _ 
2 | P P P P _ P P P 
1 | R N B _ K B N R 
-------------------
  | A B C D E F G H 

Turn of: white
Succesful move
e3e4
8 | R N B Q K B N R 
7 | P P P _ P P P P 
6 | _ _ _ _ _ _ _ _ 
5 | _ _ _ _ _ _ _ _ 
4 | _ _ _ _ P _ _ _ 
3 | Q _ _ _ _ _ _ _ 
2 | P P P P _ P P P 
1 | R N B _ K B N R 
-------------------
  | A B C D E F G H 

Turn of: black
Succesful move
e7e5
8 | R N B Q K B N R 
7 | P P P _ _ P P P 
6 | _ _ _ _ _ _ _ _ 
5 | _ _ _ _ P _ _ _ 
4 | _ _ _ _ P _ _ _ 
3 | Q _ _ _ _ _ _ _ 
2 | P P P P _ P P P 
1 | R N B _ K B N R 
-------------------
  | A B C D E F G H 

Turn of: white
Succesful move
b2b3
8 | R N B Q K B N R 
7 | P P P _ _ P P P 
6 | _ _ _ _ _ _ _ _ 
5 | _ _ _ _ P _ _ _ 
4 | _ _ _ _ P _ _ _ 
3 | Q P _ _ _ _ _ _ 
2 | P _ P P _ P P P 
1 | R N B _ K B N R 
-------------------
  | A B C D E F G H 

Turn of: black
Succesful move
d8d4
8 | R N B _ K B N R 
7 | P P P _ _ P P P 
6 | _ _ _ _ _ _ _ _ 
5 | _ _ _ _ P _ _ _ 
4 | _ _ _ Q P _ _ _ 
3 | Q P _ _ _ _ _ _ 
2 | P _ P P _ P P P 
1 | R N B _ K B N R 
-------------------
  | A B C D E F G H 

Turn of: white
Succesful move
c1b2
8 | R N B _ K B N R 
7 | P P P _ _ P P P 
6 | _ _ _ _ _ _ _ _ 
5 | _ _ _ _ P _ _ _ 
4 | _ _ _ Q P _ _ _ 
3 | Q P _ _ _ _ _ _ 
2 | P B P P _ P P P 
1 | R N _ _ K B N R 
-------------------
  | A B C D E F G H 

Turn of: black
Succesful move
c2c1q
8 | R N B _ K B N R 
7 | P P P _ _ P P P 
6 | _ _ _ _ _ _ _ _ 
5 | _ _ _ _ P _ _ _ 
4 | _ _ _ Q P _ _ _ 
3 | Q P _ _ _ _ _ _ 
2 | P B _ P _ P P P 
1 | R N Q _ K B N R 
-------------------
  | A B C D E F G H 

Turn of: white
Succesful move
b2c1
8 | R N B _ K B N R 
7 | P P P _ _ P P P 
6 | _ _ _ _ _ _ _ _ 
5 | _ _ _ _ P _ _ _ 
4 | _ _ _ Q P _ _ _ 
3 | Q P _ _ _ _ _ _ 
2 | P _ _ P _ P P P 
1 | R N B _ K B N R 
-------------------
  | A B C D E F G H 

Turn of: black
Succesful move
d4e4
8 | R N B _ K B N R 
7 | P P P _ _ P P P 
6 | _ _ _ _ _ _ _ _ 
5 | _ _ _ _ P _ _ _ 
4 | _ _ _ _ Q _ _ _ 
3 | Q P _ _ _ _ _ _ 
2 | P _ _ P _ P P P 
1 | R N B _ K B N R 
-------------------
  | A B C D E F G H 

Turn of: white
Succesful move
g1e2
8 | R N B _ K B N R 
7 | P P P _ _ P P P 
6 | _ _ _ _ _ _ _ _ 
5 | _ _ _ _ P _ _ _ 
4 | _ _ _ _ Q _ _ _ 
3 | Q P _ _ _ _ _ _ 
2 | P _ _ P N P P P 
1 | R N B _ K B _ R 
-------------------
  | A B C D E F G H 

Turn of: black
Succesful move
e4d3
8 | R N B _ K B N R 
7 | P P P _ _ P P P 
6 | _ _ _ _ _ _ _ _ 
5 | _ _ _ _ P _ _ _ 
4 | _ _ _ _ _ _ _ _ 
3 | Q P _ Q _ _ _ _ 
2 | P _ _ P N P P P 
1 | R N B _ K B _ R 
-------------------
  | A B C D E F G H 

Turn of: white
Succesful move
e2g3
8 | R N B _ K B N R 
7 | P P P _ _ P P P 
6 | _ _ _ _ _ _ _ _ 
5 | _ _ _ _ P _ _ _ 
4 | _ _ _ _ _ _ _ _ 
3 | Q P _ Q _ _ N _ 
2 | P _ _ P _ P P P 
1 | R N B _ K B _ R 
-------------------
  | A B C D E F G H 

Turn of: black
Succesful move
d3c2
8 | R N B _ K B N R 
7 | P P P _ _ P P P 
6 | _ _ _ _ _ _ _ _ 
5 | _ _ _ _ P _ _ _ 
4 | _ _ _ _ _ _ _ _ 
3 | Q P _ _ _ _ N _ 
2 | P _ Q P _ P P P 
1 | R N B _ K B _ R 
-------------------
  | A B C D E F G H 

Turn of: white
Succesful move
h2h4
8 | R N B _ K B N R 
7 | P P P _ _ P P P 
6 | _ _ _ _ _ _ _ _ 
5 | _ _ _ _ P _ _ _ 
4 | _ _ _ _ _ _ _ P 
3 | Q P _ _ _ _ N _ 
2 | P _ Q P _ P P _ 
1 | R N B _ K B _ R 
-------------------
  | A B C D E F G H 

Turn of: black
Succesful move
e5e4
8 | R N B _ K B N R 
7 | P P P _ _ P P P 
6 | _ _ _ _ _ _ _ _ 
5 | _ _ _ _ _ _ _ _ 
4 | _ _ _ _ P _ _ P 
3 | Q P _ _ _ _ N _ 
2 | P _ Q P _ P P _ 
1 | R N B _ K B _ R 
-------------------
  | A B C D E F G H 

Turn of: white
Succesful move
a3a6
8 | R N B _ K B N R 
7 | P P P _ _ P P P 
6 | Q _ _ _ _ _ _ _ 
5 | _ _ _ _ _ _ _ _ 
4 | _ _ _ _ P _ _ P 
3 | _ P _ _ _ _ N _ 
2 | P _ Q P _ P P _ 
1 | R N B _ K B _ R 
-------------------
  | A B C D E F G H 

Turn of: black
Succesful move
c2c1
8 | R N B _ K B N R 
7 | P P P _ _ P P P 
6 | Q _ _ _ _ _ _ _ 
5 | _ _ _ _ _ _ _ _ 
4 | _ _ _ _ P _ _ P 
3 | _ P _ _ _ _ N _ 
2 | P _ _ P _ P P _ 
1 | R N Q _ K B _ R 
-------------------
  | A B C D E F G H 

Turn of: white
Succesful move
e1e2
8 | R N B _ K B N R 
7 | P P P _ _ P P P 
6 | Q _ _ _ _ _ _ _ 
5 | _ _ _ _ _ _ _ _ 
4 | _ _ _ _ P _ _ P 
3 | _ P _ _ _ _ N _ 
2 | P _ _ P K P P _ 
1 | R N Q _ _ B _ R 
-------------------
  | A B C D E F G H 

Turn of: black
Succesful move
c8g4
8 | R N _ _ K B N R 
7 | P P P _ _ P P P 
6 | Q _ _ _ _ _ _ _ 
5 | _ _ _ _ _ _ _ _ 
4 | _ _ _ _ P _ B P 
3 | _ P _ _ _ _ N _ 
2 | P _ _ P K P P _ 
1 | R N Q _ _ B _ R 
-------------------
  | A B C D E F G H 

Turn of: white
Succesful move
f2f3
8 | R N _ _ K B N R 
7 | P P P _ _ P P P 
6 | Q _ _ _ _ _ _ _ 
5 | _ _ _ _ _ _ _ _ 
4 | _ _ _ _ P _ B P 
3 | _ P _ _ _ P N _ 
2 | P _ _ P K _ P _ 
1 | R N Q _ _ B _ R 
-------------------
  | A B C D E F G H 

Turn of: black
Succesful move
b7a6
8 | R N _ _ K B N R 
7 | P _ P _ _ P P P 
6 | P _ _ _ _ _ _ _ 
5 | _ _ _ _ _ _ _ _ 
4 | _ _ _ _ P _ B P 
3 | _ P _ _ _ P N _ 
2 | P _ _ P K _ P _ 
1 | R N Q _ _ B _ R 
-------------------
  | A B C D E F G H 

Turn of: white
Succesful move
d2d4
8 | R N _ _ K B N R 
7 | P _ P _ _ P P P 
6 | P _ _ _ _ _ _ _ 
5 | _ _ _ _ _ _ _ _ 
4 | _ _ _ P P _ B P 
3 | _ P _ _ _ P N _ 
2 | P _ _ _ K _ P _ 
1 | R N Q _ _ B _ R 
-------------------
  | A B C D E F G H 

Turn of: black
Succesful move
c1b2
8 | R N _ _ K B N R 
7 | P _ P _ _ P P P 
6 | P _ _ _ _ _ _ _ 
5 | _ _ _ _ _ _ _ _ 
4 | _ _ _ P P _ B P 
3 | _ P _ _ _ P N _ 
2 | P Q _ _ K _ P _ 
1 | R N _ _ _ B _ R 
-------------------
  | A B C D E F G H 

Turn of: white
Succesful move
e2e3
8 | R N _ _ K B N R 
7 | P _ P _ _ P P P 
6 | P _ _ _ _ _ _ _ 
5 | _ _ _ _ _ _ _ _ 
4 | _ _ _ P P _ B P 
3 | _ P _ _ K P N _ 
2 | P Q _ _ _ _ P _ 
1 | R N _ _ _ B _ R 
-------------------
  | A B C D E F G H 

Turn of: black
Succesful move
b2c1
8 | R N _ _ K B N R 
7 | P _ P _ _ P P P 
6 | P _ _ _ _ _ _ _ 
5 | _ _ _ _ _ _ _ _ 
4 | _ _ _ P P _ B P 
3 | _ P _ _ K P N _ 
2 | P _ _ _ _ _ P _ 
1 | R N Q _ _ B _ R 
-------------------
  | A B C D E F G H 

Turn of: white
Succesful move
e3f2
8 | R N _ _ K B N R 
7 | P _ P _ _ P P P 
6 | P _ _ _ _ _ _ _ 
5 | _ _ _ _ _ _ _ _ 
4 | _ _ _ P P _ B P 
3 | _ P _ _ _ P N _ 
2 | P _ _ _ _ K P _ 
1 | R N Q _ _ B _ R 
-------------------
  | A B C D E F G H 

Turn of: black
Succesful move
c1c2
8 | R N _ _ K B N R 
7 | P _ P _ _ P P P 
6 | P _ _ _ _ _ _ _ 
5 | _ _ _ _ _ _ _ _ 
4 | _ _ _ P P _ B P 
3 | _ P _ _ _ P N _ 
2 | P _ Q _ _ K P _ 
1 | R N _ _ _ B _ R 
-------------------
  | A B C D E F G H 

Turn of: white
Succesful move
f1e2
8 | R N _ _ K B N R 
7 | P _ P _ _ P P P 
6 | P _ _ _ _ _ _ _ 
5 | _ _ _ _ _ _ _ _ 
4 | _ _ _ P P _ B P 
3 | _ P _ _ _ P N _ 
2 | P _ Q _ B K P _ 
1 | R N _ _ _ _ _ R 
-------------------
  | A B C D E F G H 

Turn of: black
Succesful move
e4f3
8 | R N _ _ K B N R 
7 | P _ P _ _ P P P 
6 | P _ _ _ _ _ _ _ 
5 | _ _ _ _ _ _ _ _ 
4 | _ _ _ P _ _ B P 
3 | _ P _ _ _ P N _ 
2 | P _ Q _ B K P _ 
1 | R N _ _ _ _ _ R 
-------------------
  | A B C D E F G H 

Turn of: white
Succesful move
f2e3
8 | R N _ _ K B N R 
7 | P _ P _ _ P P P 
6 | P _ _ _ _ _ _ _ 
5 | _ _ _ _ _ _ _ _ 
4 | _ _ _ P _ _ B P 
3 | _ P _ _ K P N _ 
2 | P _ Q _ B _ P _ 
1 | R N _ _ _ _ _ R 
-------------------
  | A B C D E F G H 

Turn of: black
Succesful move
f3g2
8 | R N _ _ K B N R 
7 | P _ P _ _ P P P 
6 | P _ _ _ _ _ _ _ 
5 | _ _ _ _ _ _ _ _ 
4 | _ _ _ P _ _ B P 
3 | _ P _ _ K _ N _ 
2 | P _ Q _ B _ P _ 
1 | R N _ _ _ _ _ R 
-------------------
  | A B C D E F G H 

Turn of: white
Succesful move
h1c1
8 | R N _ _ K B N R 
7 | P _ P _ _ P P P 
6 | P _ _ _ _ _ _ _ 
5 | _ _ _ _ _ _ _ _ 
4 | _ _ _ P _ _ B P 
3 | _ P _ _ K _ N _ 
2 | P _ Q _ B _ P _ 
1 | R N R _ _ _ _ _ 
-------------------
  | A B C D E F G H 

Turn of: black
Succesful move
g2g1q
8 | R N _ _ K B N R 
7 | P _ P _ _ P P P 
6 | P _ _ _ _ _ _ _ 
5 | _ _ _ _ _ _ _ _ 
4 | _ _ _ P _ _ B P 
3 | _ P _ _ K _ N _ 
2 | P _ Q _ B _ _ _ 
1 | R N R _ _ _ Q _ 
-------------------
  | A B C D E F G H 

Turn of: white
Succesful move
e3f4
8 | R N _ _ K B N R 
7 | P _ P _ _ P P P 
6 | P _ _ _ _ _ _ _ 
5 | _ _ _ _ _ _ _ _ 
4 | _ _ _ P _ K B P 
3 | _ P _ _ _ _ N _ 
2 | P _ Q _ B _ _ _ 
1 | R N R _ _ _ Q _ 
-------------------
  | A B C D E F G H 

Turn of: black
Succesful move
g1c1
8 | R N _ _ K B N R 
7 | P _ P _ _ P P P 
6 | P _ _ _ _ _ _ _ 
5 | _ _ _ _ _ _ _ _ 
4 | _ _ _ P _ K B P 
3 | _ P _ _ _ _ N _ 
2 | P _ Q _ B _ _ _ 
1 | R N Q _ _ _ _ _ 
-------------------
  | A B C D E F G H 

Turn of: white
Succesful move
f4g4
8 | R N _ _ K B N R 
7 | P _ P _ _ P P P 
6 | P _ _ _ _ _ _ _ 
5 | _ _ _ _ _ _ _ _ 
4 | _ _ _ P _ _ K P 
3 | _ P _ _ _ _ N _ 
2 | P _ Q _ B _ _ _ 
1 | R N Q _ _ _ _ _ 
-------------------
  | A B C D E F G H 

Turn of: black
Succesful move
g8h6
8 | R N _ _ K B _ R 
7 | P _ P _ _ P P P 
6 | P _ _ _ _ _ _ N 
5 | _ _ _ _ _ _ _ _ 
4 | _ _ _ P _ _ K P 
3 | _ P _ _ _ _ N _ 
2 | P _ Q _ B _ _ _ 
1 | R N Q _ _ _ _ _ 
-------------------
  | A B C D E F G H 

Turn of: white
Succesful move
g4h3
8 | R N _ _ K B _ R 
7 | P _ P _ _ P P P 
6 | P _ _ _ _ _ _ N 
5 | _ _ _ _ _ _ _ _ 
4 | _ _ _ P _ _ _ P 
3 | _ P _ _ _ _ N K 
2 | P _ Q _ B _ _ _ 
1 | R N Q _ _ _ _ _ 
-------------------
  | A B C D E F G H 

Turn of: black
Succesful move
c2b2
8 | R N _ _ K B _ R 
7 | P _ P _ _ P P P 
6 | P _ _ _ _ _ _ N 
5 | _ _ _ _ _ _ _ _ 
4 | _ _ _ P _ _ _ P 
3 | _ P _ _ _ _ N K 
2 | P Q _ _ B _ _ _ 
1 | R N Q _ _ _ _ _ 
-------------------
  | A B C D E F G H 

Turn of: white
Succesful move
b3b4
8 | R N _ _ K B _ R 
7 | P _ P _ _ P P P 
6 | P _ _ _ _ _ _ N 
5 | _ _ _ _ _ _ _ _ 
4 | _ P _ P _ _ _ P 
3 | _ _ _ _ _ _ N K 
2 | P Q _ _ B _ _ _ 
1 | R N Q _ _ _ _ _ 
-------------------
  | A B C D E F G H 

Turn of: black
Succesful move
b2a1
8 | R N _ _ K B _ R 
7 | P _ P _ _ P P P 
6 | P _ _ _ _ _ _ N 
5 | _ _ _ _ _ _ _ _ 
4 | _ P _ P _ _ _ P 
3 | _ _ _ _ _ _ N K 
2 | P _ _ _ B _ _ _ 
1 | Q N Q _ _ _ _ _ 
-------------------
  | A B C D E F G H 

Turn of: white
Succesful move
g3h5
8 | R N _ _ K B _ R 
7 | P _ P _ _ P P P 
6 | P _ _ _ _ _ _ N 
5 | _ _ _ _ _ _ _ N 
4 | _ P _ P _ _ _ P 
3 | _ _ _ _ _ _ _ K 
2 | P _ _ _ B _ _ _ 
1 | Q N Q _ _ _ _ _ 
-------------------
  | A B C D E F G H 

Turn of: black
Succesful move
c1e3
8 | R N _ _ K B _ R 
7 | P _ P _ _ P P P 
6 | P _ _ _ _ _ _ N 
5 | _ _ _ _ _ _ _ N 
4 | _ P _ P _ _ _ P 
3 | _ _ _ _ Q _ _ K 
2 | P _ _ _ B _ _ _ 
1 | Q N _ _ _ _ _ _ 
-------------------
  | A B C D E F G H 

Turn of: white
Succesful move
h5g3
8 | R N _ _ K B _ R 
7 | P _ P _ _ P P P 
6 | P _ _ _ _ _ _ N 
5 | _ _ _ _ _ _ _ _ 
4 | _ P _ P _ _ _ P 
3 | _ _ _ _ Q _ N K 
2 | P _ _ _ B _ _ _ 
1 | Q N _ _ _ _ _ _ 
-------------------
  | A B C D E F G H 

Turn of: black
Succesful move
e3e6
8 | R N _ _ K B _ R 
7 | P _ P _ _ P P P 
6 | P _ _ _ Q _ _ N 
5 | _ _ _ _ _ _ _ _ 
4 | _ P _ P _ _ _ P 
3 | _ _ _ _ _ _ N K 
2 | P _ _ _ B _ _ _ 
1 | Q N _ _ _ _ _ _ 
-------------------
  | A B C D E F G H 

Turn of: white
Succesful move
h3h2
8 | R N _ _ K B _ R 
7 | P _ P _ _ P P P 
6 | P _ _ _ Q _ _ N 
5 | _ _ _ _ _ _ _ _ 
4 | _ P _ P _ _ _ P 
3 | _ _ _ _ _ _ N _ 
2 | P _ _ _ B _ _ K 
1 | Q N _ _ _ _ _ _ 
-------------------
  | A B C D E F G H 

Turn of: black
Succesful move
h6g4
8 | R N _ _ K B _ R 
7 | P _ P _ _ P P P 
6 | P _ _ _ Q _ _ _ 
5 | _ _ _ _ _ _ _ _ 
4 | _ P _ P _ _ N P 
3 | _ _ _ _ _ _ N _ 
2 | P _ _ _ B _ _ K 
1 | Q N _ _ _ _ _ _ 
-------------------
  | A B C D E F G H 

Turn of: white
Succesful move
h2h1
8 | R N _ _ K B _ R 
7 | P _ P _ _ P P P 
6 | P _ _ _ Q _ _ _ 
5 | _ _ _ _ _ _ _ _ 
4 | _ P _ P _ _ N P 
3 | _ _ _ _ _ _ N _ 
2 | P _ _ _ B _ _ _ 
1 | Q N _ _ _ _ _ K 
-------------------
  | A B C D E F G H 

Turn of: black
Succesful move
a1b1
8 | R N _ _ K B _ R 
7 | P _ P _ _ P P P 
6 | P _ _ _ Q _ _ _ 
5 | _ _ _ _ _ _ _ _ 
4 | _ P _ P _ _ N P 
3 | _ _ _ _ _ _ N _ 
2 | P _ _ _ B _ _ _ 
1 | _ Q _ _ _ _ _ K 
-------------------
  | A B C D E F G H 

Turn of: white
Succesful move
e2f1
8 | R N _ _ K B _ R 
7 | P _ P _ _ P P P 
6 | P _ _ _ Q _ _ _ 
5 | _ _ _ _ _ _ _ _ 
4 | _ P _ P _ _ N P 
3 | _ _ _ _ _ _ N _ 
2 | P _ _ _ _ _ _ _ 
1 | _ Q _ _ _ B _ K 
-------------------
  | A B C D E F G H 

Turn of: black
Succesful move
e6d5
8 | R N _ _ K B _ R 
7 | P _ P _ _ P P P 
6 | P _ _ _ _ _ _ _ 
5 | _ _ _ Q _ _ _ _ 
4 | _ P _ P _ _ N P 
3 | _ _ _ _ _ _ N _ 
2 | P _ _ _ _ _ _ _ 
1 | _ Q _ _ _ B _ K 
-------------------
  | A B C D E F G H 

Turn of: white
Succesful move
h1g1
8 | R N _ _ K B _ R 
7 | P _ P _ _ P P P 
6 | P _ _ _ _ _ _ _ 
5 | _ _ _ Q _ _ _ _ 
4 | _ P _ P _ _ N P 
3 | _ _ _ _ _ _ N _ 
2 | P _ _ _ _ _ _ _ 
1 | _ Q _ _ _ B K _ 
-------------------
  | A B C D E F G H 

Turn of: black
Succesful move
d5d4
8 | R N _ _ K B _ R 
7 | P _ P _ _ P P P 
6 | P _ _ _ _ _ _ _ 
5 | _ _ _ _ _ _ _ _ 
4 | _ P _ Q _ _ N P 
3 | _ _ _ _ _ _ N _ 
2 | P _ _ _ _ _ _ _ 
1 | _ Q _ _ _ B K _ 
-------------------
  | A B C D E F G H 

Turn of: white
Succesful move
g1g2
8 | R N _ _ K B _ R 
7 | P _ P _ _ P P P 
6 | P _ _ _ _ _ _ _ 
5 | _ _ _ _ _ _ _ _ 
4 | _ P _ Q _ _ N P 
3 | _ _ _ _ _ _ N _ 
2 | P _ _ _ _ _ K _ 
1 | _ Q _ _ _ B _ _ 
-------------------
  | A B C D E F G H 

Turn of: black
Succesful move
d4b2
8 | R N _ _ K B _ R 
7 | P _ P _ _ P P P 
6 | P _ _ _ _ _ _ _ 
5 | _ _ _ _ _ _ _ _ 
4 | _ P _ _ _ _ N P 
3 | _ _ _ _ _ _ N _ 
2 | P Q _ _ _ _ K _ 
1 | _ Q _ _ _ B _ _ 
-------------------
  | A B C D E F G H 

We are playing as White
Move history:
c2c3
d7d5
d1b3
d5d4
b3a3
d4c3
e2e3
c3c2
e3e4
e7e5
b2b3
d8d4
c1b2
c2c1q
b2c1
d4e4
g1e2
e4d3
e2g3
d3c2
h2h4
e5e4
a3a6
c2c1
e1e2
c8g4
f2f3
b7a6
d2d4
c1b2
e2e3
b2c1
e3f2
c1c2
f1e2
e4f3
f2e3
f3g2
h1c1
g2g1q
e3f4
g1c1
f4g4
g8h6
g4h3
c2b2
b3b4
b2a1
g3h5
c1e3
h5g3
e3e6
h3h2
h6g4
h2h1
a1b1
e2f1
e6d5
h1g1
d5d4
g1g2
d4b2
8 | R N _ _ K B _ R 
7 | P _ P _ _ P P P 
6 | P _ _ _ _ _ _ _ 
5 | _ _ _ _ _ _ _ _ 
4 | _ P _ _ _ _ N P 
3 | _ _ _ _ _ _ N _ 
2 | P Q _ _ _ _ K _ 
1 | _ Q _ _ _ B _ _ 
-------------------
  | A B C D E F G H 

It is white's turn to play.
AI's move: g2h1
Move written: g2h1
[32;1m[Game] [0mPlayer's error code: 0
[32;1m[Game] [0mChecking move validity...
[32;1m[Board] [0mInitializing board...
[32;1m[Board] [0mLoading history file `championship/lizzie-iii-remmato-iii/history.csv`...
[32;1m[Board] [0mLoaded 62 move(s).
[32;1m[Board] [0mLoading move file `championship/lizzie-iii-remmato-iii/move.csv`...
[32;1m[Board] [0mWhite player is playing g2 to h1.
[32;1m[Board] [0m
[32;1m[Board] [0m    a b c d e f g h 
[32;1m[Board] [0m  -------------------
[32;1m[Board] [0m8 ||[30;1mr[0m|[30;1mk[0m|[7;1m [0m| |[30;1mK[0m|[30;1mb[0m|[7;1m [0m|[30;1mr[0m|| 8
[32;1m[Board] [0m  -------------------
[32;1m[Board] [0m7 ||[30;1mp[0m|[7;1m [0m|[30;1mp[0m|[7;1m [0m| |[30;1mp[0m|[30;1mp[0m|[30;1mp[0m|| 7
[32;1m[Board] [0m  -------------------
[32;1m[Board] [0m6 ||[30;1mp[0m| |[7;1m [0m| |[7;1m [0m| |[7;1m [0m| || 6
[32;1m[Board] [0m  -------------------
[32;1m[Board] [0m5 || |[7;1m [0m| |[7;1m [0m| |[7;1m [0m| |[7;1m [0m|| 5
[32;1m[Board] [0m  -------------------
[32;1m[Board] [0m4 ||[7;1m [0m|[0;1mp[0m|[7;1m [0m| |[7;1m [0m| |[30;1mk[0m|[0;1mp[0m|| 4
[32;1m[Board] [0m  -------------------
[32;1m[Board] [0m3 || |[7;1m [0m| |[7;1m [0m| |[7;1m [0m|[0;1mk[0m|[7;1m [0m|| 3
[32;1m[Board] [0m  -------------------
[32;1m[Board] [0m2 ||[0;1mp[0m|[30;1mQ[0m|[7;1m [0m| |[7;1m [0m| |[7;1m [0m| || 2
[32;1m[Board] [0m  -------------------
[32;1m[Board] [0m1 || |[30;1mQ[0m| |[7;1m [0m| |[0;1mb[0m| |[0;1mK[0m|| 1
[32;1m[Board] [0m  -------------------
[32;1m[Board] [0m    a b c d e f g h
[32;1m[Board] [0m
[32;1m[Referee] [0mThis is the turn of the Black player...
Error: /home/julien/Pro/git/teaching/x/2024/remmato-iii/build/bin/../resources/openings does not exist or is not a directory
[32;1m[Game] [0mPlayer's error code: 0
[32;1m[Game] [0mChecking move validity...
[32;1m[Board] [0mInitializing board...
[32;1m[Board] [0mLoading history file `championship/lizzie-iii-remmato-iii/history.csv`...
[32;1m[Board] [0mLoaded 63 move(s).
[32;1m[Board] [0mLoading move file `championship/lizzie-iii-remmato-iii/move.csv`...
[32;1m[Board] [0mBlack player is playing b2 to h2.
[32;1m[Board] [0m
[32;1m[Board] [0m    a b c d e f g h 
[32;1m[Board] [0m  -------------------
[32;1m[Board] [0m8 ||[30;1mr[0m|[30;1mk[0m|[7;1m [0m| |[30;1mK[0m|[30;1mb[0m|[7;1m [0m|[30;1mr[0m|| 8
[32;1m[Board] [0m  -------------------
[32;1m[Board] [0m7 ||[30;1mp[0m|[7;1m [0m|[30;1mp[0m|[7;1m [0m| |[30;1mp[0m|[30;1mp[0m|[30;1mp[0m|| 7
[32;1m[Board] [0m  -------------------
[32;1m[Board] [0m6 ||[30;1mp[0m| |[7;1m [0m| |[7;1m [0m| |[7;1m [0m| || 6
[32;1m[Board] [0m  -------------------
[32;1m[Board] [0m5 || |[7;1m [0m| |[7;1m [0m| |[7;1m [0m| |[7;1m [0m|| 5
[32;1m[Board] [0m  -------------------
[32;1m[Board] [0m4 ||[7;1m [0m|[0;1mp[0m|[7;1m [0m| |[7;1m [0m| |[30;1mk[0m|[0;1mp[0m|| 4
[32;1m[Board] [0m  -------------------
[32;1m[Board] [0m3 || |[7;1m [0m| |[7;1m [0m| |[7;1m [0m|[0;1mk[0m|[7;1m [0m|| 3
[32;1m[Board] [0m  -------------------
[32;1m[Board] [0m2 ||[0;1mp[0m| |[7;1m [0m| |[7;1m [0m| |[7;1m [0m|[30;1mQ[0m|| 2
[32;1m[Board] [0m  -------------------
[32;1m[Board] [0m1 || |[30;1mQ[0m| |[7;1m [0m| |[0;1mb[0m| |[0;1mK[0m|| 1
[32;1m[Board] [0m  -------------------
[32;1m[Board] [0m    a b c d e f g h
[32;1m[Board] [0m
[32;1m[Referee] [0mThis is the turn of the White player...
[32;1m[Board] [0m[33;1m[WARNING][0m [5;1mWhite King in checkmate![0m
[32;1m[Board] [0m[33;1m[WARNING][0m The Black player wins!
