[32;1m[Board] [0mInitializing board...
[32;1m[Board] [0m
[32;1m[Board] [0m    a b c d e f g h 
[32;1m[Board] [0m  -------------------
[32;1m[Board] [0m8 ||[30;1mr[0m|[30;1mk[0m|[30;1mb[0m|[30;1mQ[0m|[30;1mK[0m|[30;1mb[0m|[30;1mk[0m|[30;1mr[0m|| 8
[32;1m[Board] [0m  -------------------
[32;1m[Board] [0m7 ||[30;1mp[0m|[30;1mp[0m|[30;1mp[0m|[30;1mp[0m|[30;1mp[0m|[30;1mp[0m|[30;1mp[0m|[30;1mp[0m|| 7
[32;1m[Board] [0m  -------------------
[32;1m[Board] [0m6 ||[7;1m [0m| |[7;1m [0m| |[7;1m [0m| |[7;1m [0m| || 6
[32;1m[Board] [0m  -------------------
[32;1m[Board] [0m5 || |[7;1m [0m| |[7;1m [0m| |[7;1m [0m| |[7;1m [0m|| 5
[32;1m[Board] [0m  -------------------
[32;1m[Board] [0m4 ||[7;1m [0m| |[7;1m [0m| |[7;1m [0m| |[7;1m [0m| || 4
[32;1m[Board] [0m  -------------------
[32;1m[Board] [0m3 || |[7;1m [0m| |[7;1m [0m| |[7;1m [0m| |[7;1m [0m|| 3
[32;1m[Board] [0m  -------------------
[32;1m[Board] [0m2 ||[0;1mp[0m|[0;1mp[0m|[0;1mp[0m|[0;1mp[0m|[0;1mp[0m|[0;1mp[0m|[0;1mp[0m|[0;1mp[0m|| 2
[32;1m[Board] [0m  -------------------
[32;1m[Board] [0m1 ||[0;1mr[0m|[0;1mk[0m|[0;1mb[0m|[0;1mQ[0m|[0;1mK[0m|[0;1mb[0m|[0;1mk[0m|[0;1mr[0m|| 1
[32;1m[Board] [0m  -------------------
[32;1m[Board] [0m    a b c d e f g h
[32;1m[Board] [0m
[32;1m[Referee] [0mThis is the turn of the White player...
Input file: championship/lizzie-iii-shallowcyan/history.csv
Output file: championship/lizzie-iii-shallowcyan/move.csv
We are playing as White
Move history:
8 | R N B Q K B N R 
7 | P P P P P P P P 
6 | _ _ _ _ _ _ _ _ 
5 | _ _ _ _ _ _ _ _ 
4 | _ _ _ _ _ _ _ _ 
3 | _ _ _ _ _ _ _ _ 
2 | P P P P P P P P 
1 | R N B Q K B N R 
-------------------
  | A B C D E F G H 

It is white's turn to play.
AI's move: c2c3
Move written: c2c3
[32;1m[Game] [0mPlayer's error code: 0
[32;1m[Game] [0mChecking move validity...
[32;1m[Board] [0mInitializing board...
[32;1m[Board] [0mLoading history file `championship/lizzie-iii-shallowcyan/history.csv`...
[32;1m[Board] [0mLoaded 0 move(s).
[32;1m[Board] [0mLoading move file `championship/lizzie-iii-shallowcyan/move.csv`...
[32;1m[Board] [0mWhite player is playing c2 to c3.
[32;1m[Board] [0m
[32;1m[Board] [0m    a b c d e f g h 
[32;1m[Board] [0m  -------------------
[32;1m[Board] [0m8 ||[30;1mr[0m|[30;1mk[0m|[30;1mb[0m|[30;1mQ[0m|[30;1mK[0m|[30;1mb[0m|[30;1mk[0m|[30;1mr[0m|| 8
[32;1m[Board] [0m  -------------------
[32;1m[Board] [0m7 ||[30;1mp[0m|[30;1mp[0m|[30;1mp[0m|[30;1mp[0m|[30;1mp[0m|[30;1mp[0m|[30;1mp[0m|[30;1mp[0m|| 7
[32;1m[Board] [0m  -------------------
[32;1m[Board] [0m6 ||[7;1m [0m| |[7;1m [0m| |[7;1m [0m| |[7;1m [0m| || 6
[32;1m[Board] [0m  -------------------
[32;1m[Board] [0m5 || |[7;1m [0m| |[7;1m [0m| |[7;1m [0m| |[7;1m [0m|| 5
[32;1m[Board] [0m  -------------------
[32;1m[Board] [0m4 ||[7;1m [0m| |[7;1m [0m| |[7;1m [0m| |[7;1m [0m| || 4
[32;1m[Board] [0m  -------------------
[32;1m[Board] [0m3 || |[7;1m [0m|[0;1mp[0m|[7;1m [0m| |[7;1m [0m| |[7;1m [0m|| 3
[32;1m[Board] [0m  -------------------
[32;1m[Board] [0m2 ||[0;1mp[0m|[0;1mp[0m|[7;1m [0m|[0;1mp[0m|[0;1mp[0m|[0;1mp[0m|[0;1mp[0m|[0;1mp[0m|| 2
[32;1m[Board] [0m  -------------------
[32;1m[Board] [0m1 ||[0;1mr[0m|[0;1mk[0m|[0;1mb[0m|[0;1mQ[0m|[0;1mK[0m|[0;1mb[0m|[0;1mk[0m|[0;1mr[0m|| 1
[32;1m[Board] [0m  -------------------
[32;1m[Board] [0m    a b c d e f g h
[32;1m[Board] [0m
[32;1m[Referee] [0mThis is the turn of the Black player...
8 [100m ♖ [43m ♘ [100m ♗ [43m ♕ [100m ♔ [43m ♗ [100m ♘ [43m ♖ [40m
7 [43m ♙ [100m ♙ [43m ♙ [100m ♙ [43m ♙ [100m ♙ [43m ♙ [100m ♙ [40m
6 [100m   [43m   [100m   [43m   [100m   [43m   [100m   [43m   [40m
5 [43m   [100m   [43m   [100m   [43m   [100m   [43m   [100m   [40m
4 [100m   [43m   [100m   [43m   [100m   [43m   [100m   [43m   [40m
3 [43m   [100m   [43m ♟ [100m   [43m   [100m   [43m   [100m   [40m
2 [100m ♟ [43m ♟ [100m   [43m ♟ [100m ♟ [43m ♟ [100m ♟ [43m ♟ [40m
1 [43m ♜ [100m ♞ [43m ♝ [100m ♛ [43m ♚ [100m ♝ [43m ♞ [100m ♜ [40m
   a  b  c  d  e  f  g  h  
[32;1m[Game] [0mPlayer's error code: 0
[32;1m[Game] [0mChecking move validity...
[32;1m[Board] [0mInitializing board...
[32;1m[Board] [0mLoading history file `championship/lizzie-iii-shallowcyan/history.csv`...
[32;1m[Board] [0mLoaded 1 move(s).
[32;1m[Board] [0mLoading move file `championship/lizzie-iii-shallowcyan/move.csv`...
[32;1m[Board] [0mBlack player is playing b7 to b6.
[32;1m[Board] [0m
[32;1m[Board] [0m    a b c d e f g h 
[32;1m[Board] [0m  -------------------
[32;1m[Board] [0m8 ||[30;1mr[0m|[30;1mk[0m|[30;1mb[0m|[30;1mQ[0m|[30;1mK[0m|[30;1mb[0m|[30;1mk[0m|[30;1mr[0m|| 8
[32;1m[Board] [0m  -------------------
[32;1m[Board] [0m7 ||[30;1mp[0m|[7;1m [0m|[30;1mp[0m|[30;1mp[0m|[30;1mp[0m|[30;1mp[0m|[30;1mp[0m|[30;1mp[0m|| 7
[32;1m[Board] [0m  -------------------
[32;1m[Board] [0m6 ||[7;1m [0m|[30;1mp[0m|[7;1m [0m| |[7;1m [0m| |[7;1m [0m| || 6
[32;1m[Board] [0m  -------------------
[32;1m[Board] [0m5 || |[7;1m [0m| |[7;1m [0m| |[7;1m [0m| |[7;1m [0m|| 5
[32;1m[Board] [0m  -------------------
[32;1m[Board] [0m4 ||[7;1m [0m| |[7;1m [0m| |[7;1m [0m| |[7;1m [0m| || 4
[32;1m[Board] [0m  -------------------
[32;1m[Board] [0m3 || |[7;1m [0m|[0;1mp[0m|[7;1m [0m| |[7;1m [0m| |[7;1m [0m|| 3
[32;1m[Board] [0m  -------------------
[32;1m[Board] [0m2 ||[0;1mp[0m|[0;1mp[0m|[7;1m [0m|[0;1mp[0m|[0;1mp[0m|[0;1mp[0m|[0;1mp[0m|[0;1mp[0m|| 2
[32;1m[Board] [0m  -------------------
[32;1m[Board] [0m1 ||[0;1mr[0m|[0;1mk[0m|[0;1mb[0m|[0;1mQ[0m|[0;1mK[0m|[0;1mb[0m|[0;1mk[0m|[0;1mr[0m|| 1
[32;1m[Board] [0m  -------------------
[32;1m[Board] [0m    a b c d e f g h
[32;1m[Board] [0m
[32;1m[Referee] [0mThis is the turn of the White player...
Input file: championship/lizzie-iii-shallowcyan/history.csv
Output file: championship/lizzie-iii-shallowcyan/move.csv
Turn of: white
Succesful move
c2c3
8 | R N B Q K B N R 
7 | P P P P P P P P 
6 | _ _ _ _ _ _ _ _ 
5 | _ _ _ _ _ _ _ _ 
4 | _ _ _ _ _ _ _ _ 
3 | _ _ P _ _ _ _ _ 
2 | P P _ P P P P P 
1 | R N B Q K B N R 
-------------------
  | A B C D E F G H 

Turn of: black
Succesful move
b7b6
8 | R N B Q K B N R 
7 | P _ P P P P P P 
6 | _ P _ _ _ _ _ _ 
5 | _ _ _ _ _ _ _ _ 
4 | _ _ _ _ _ _ _ _ 
3 | _ _ P _ _ _ _ _ 
2 | P P _ P P P P P 
1 | R N B Q K B N R 
-------------------
  | A B C D E F G H 

We are playing as White
Move history:
c2c3
b7b6
8 | R N B Q K B N R 
7 | P _ P P P P P P 
6 | _ P _ _ _ _ _ _ 
5 | _ _ _ _ _ _ _ _ 
4 | _ _ _ _ _ _ _ _ 
3 | _ _ P _ _ _ _ _ 
2 | P P _ P P P P P 
1 | R N B Q K B N R 
-------------------
  | A B C D E F G H 

It is white's turn to play.
AI's move: a2a4
Move written: a2a4
[32;1m[Game] [0mPlayer's error code: 0
[32;1m[Game] [0mChecking move validity...
[32;1m[Board] [0mInitializing board...
[32;1m[Board] [0mLoading history file `championship/lizzie-iii-shallowcyan/history.csv`...
[32;1m[Board] [0mLoaded 2 move(s).
[32;1m[Board] [0mLoading move file `championship/lizzie-iii-shallowcyan/move.csv`...
[32;1m[Board] [0mWhite player is playing a2 to a4.
[32;1m[Board] [0m
[32;1m[Board] [0m    a b c d e f g h 
[32;1m[Board] [0m  -------------------
[32;1m[Board] [0m8 ||[30;1mr[0m|[30;1mk[0m|[30;1mb[0m|[30;1mQ[0m|[30;1mK[0m|[30;1mb[0m|[30;1mk[0m|[30;1mr[0m|| 8
[32;1m[Board] [0m  -------------------
[32;1m[Board] [0m7 ||[30;1mp[0m|[7;1m [0m|[30;1mp[0m|[30;1mp[0m|[30;1mp[0m|[30;1mp[0m|[30;1mp[0m|[30;1mp[0m|| 7
[32;1m[Board] [0m  -------------------
[32;1m[Board] [0m6 ||[7;1m [0m|[30;1mp[0m|[7;1m [0m| |[7;1m [0m| |[7;1m [0m| || 6
[32;1m[Board] [0m  -------------------
[32;1m[Board] [0m5 || |[7;1m [0m| |[7;1m [0m| |[7;1m [0m| |[7;1m [0m|| 5
[32;1m[Board] [0m  -------------------
[32;1m[Board] [0m4 ||[0;1mp[0m| |[7;1m [0m| |[7;1m [0m| |[7;1m [0m| || 4
[32;1m[Board] [0m  -------------------
[32;1m[Board] [0m3 || |[7;1m [0m|[0;1mp[0m|[7;1m [0m| |[7;1m [0m| |[7;1m [0m|| 3
[32;1m[Board] [0m  -------------------
[32;1m[Board] [0m2 ||[7;1m [0m|[0;1mp[0m|[7;1m [0m|[0;1mp[0m|[0;1mp[0m|[0;1mp[0m|[0;1mp[0m|[0;1mp[0m|| 2
[32;1m[Board] [0m  -------------------
[32;1m[Board] [0m1 ||[0;1mr[0m|[0;1mk[0m|[0;1mb[0m|[0;1mQ[0m|[0;1mK[0m|[0;1mb[0m|[0;1mk[0m|[0;1mr[0m|| 1
[32;1m[Board] [0m  -------------------
[32;1m[Board] [0m    a b c d e f g h
[32;1m[Board] [0m
[32;1m[Referee] [0mThis is the turn of the Black player...
8 [100m ♖ [43m ♘ [100m ♗ [43m ♕ [100m ♔ [43m ♗ [100m ♘ [43m ♖ [40m
7 [43m ♙ [100m   [43m ♙ [100m ♙ [43m ♙ [100m ♙ [43m ♙ [100m ♙ [40m
6 [100m   [43m ♙ [100m   [43m   [100m   [43m   [100m   [43m   [40m
5 [43m   [100m   [43m   [100m   [43m   [100m   [43m   [100m   [40m
4 [100m ♟ [43m   [100m   [43m   [100m   [43m   [100m   [43m   [40m
3 [43m   [100m   [43m ♟ [100m   [43m   [100m   [43m   [100m   [40m
2 [100m   [43m ♟ [100m   [43m ♟ [100m ♟ [43m ♟ [100m ♟ [43m ♟ [40m
1 [43m ♜ [100m ♞ [43m ♝ [100m ♛ [43m ♚ [100m ♝ [43m ♞ [100m ♜ [40m
   a  b  c  d  e  f  g  h  
[32;1m[Game] [0mPlayer's error code: 0
[32;1m[Game] [0mChecking move validity...
[32;1m[Board] [0mInitializing board...
[32;1m[Board] [0mLoading history file `championship/lizzie-iii-shallowcyan/history.csv`...
[32;1m[Board] [0mLoaded 3 move(s).
[32;1m[Board] [0mLoading move file `championship/lizzie-iii-shallowcyan/move.csv`...
[32;1m[Board] [0mBlack player is playing h7 to h5.
[32;1m[Board] [0m
[32;1m[Board] [0m    a b c d e f g h 
[32;1m[Board] [0m  -------------------
[32;1m[Board] [0m8 ||[30;1mr[0m|[30;1mk[0m|[30;1mb[0m|[30;1mQ[0m|[30;1mK[0m|[30;1mb[0m|[30;1mk[0m|[30;1mr[0m|| 8
[32;1m[Board] [0m  -------------------
[32;1m[Board] [0m7 ||[30;1mp[0m|[7;1m [0m|[30;1mp[0m|[30;1mp[0m|[30;1mp[0m|[30;1mp[0m|[30;1mp[0m|[7;1m [0m|| 7
[32;1m[Board] [0m  -------------------
[32;1m[Board] [0m6 ||[7;1m [0m|[30;1mp[0m|[7;1m [0m| |[7;1m [0m| |[7;1m [0m| || 6
[32;1m[Board] [0m  -------------------
[32;1m[Board] [0m5 || |[7;1m [0m| |[7;1m [0m| |[7;1m [0m| |[30;1mp[0m|| 5
[32;1m[Board] [0m  -------------------
[32;1m[Board] [0m4 ||[0;1mp[0m| |[7;1m [0m| |[7;1m [0m| |[7;1m [0m| || 4
[32;1m[Board] [0m  -------------------
[32;1m[Board] [0m3 || |[7;1m [0m|[0;1mp[0m|[7;1m [0m| |[7;1m [0m| |[7;1m [0m|| 3
[32;1m[Board] [0m  -------------------
[32;1m[Board] [0m2 ||[7;1m [0m|[0;1mp[0m|[7;1m [0m|[0;1mp[0m|[0;1mp[0m|[0;1mp[0m|[0;1mp[0m|[0;1mp[0m|| 2
[32;1m[Board] [0m  -------------------
[32;1m[Board] [0m1 ||[0;1mr[0m|[0;1mk[0m|[0;1mb[0m|[0;1mQ[0m|[0;1mK[0m|[0;1mb[0m|[0;1mk[0m|[0;1mr[0m|| 1
[32;1m[Board] [0m  -------------------
[32;1m[Board] [0m    a b c d e f g h
[32;1m[Board] [0m
[32;1m[Referee] [0mThis is the turn of the White player...
Input file: championship/lizzie-iii-shallowcyan/history.csv
Output file: championship/lizzie-iii-shallowcyan/move.csv
Turn of: white
Succesful move
c2c3
8 | R N B Q K B N R 
7 | P P P P P P P P 
6 | _ _ _ _ _ _ _ _ 
5 | _ _ _ _ _ _ _ _ 
4 | _ _ _ _ _ _ _ _ 
3 | _ _ P _ _ _ _ _ 
2 | P P _ P P P P P 
1 | R N B Q K B N R 
-------------------
  | A B C D E F G H 

Turn of: black
Succesful move
b7b6
8 | R N B Q K B N R 
7 | P _ P P P P P P 
6 | _ P _ _ _ _ _ _ 
5 | _ _ _ _ _ _ _ _ 
4 | _ _ _ _ _ _ _ _ 
3 | _ _ P _ _ _ _ _ 
2 | P P _ P P P P P 
1 | R N B Q K B N R 
-------------------
  | A B C D E F G H 

Turn of: white
Succesful move
a2a4
8 | R N B Q K B N R 
7 | P _ P P P P P P 
6 | _ P _ _ _ _ _ _ 
5 | _ _ _ _ _ _ _ _ 
4 | P _ _ _ _ _ _ _ 
3 | _ _ P _ _ _ _ _ 
2 | _ P _ P P P P P 
1 | R N B Q K B N R 
-------------------
  | A B C D E F G H 

Turn of: black
Succesful move
h7h5
8 | R N B Q K B N R 
7 | P _ P P P P P _ 
6 | _ P _ _ _ _ _ _ 
5 | _ _ _ _ _ _ _ P 
4 | P _ _ _ _ _ _ _ 
3 | _ _ P _ _ _ _ _ 
2 | _ P _ P P P P P 
1 | R N B Q K B N R 
-------------------
  | A B C D E F G H 

We are playing as White
Move history:
c2c3
b7b6
a2a4
h7h5
8 | R N B Q K B N R 
7 | P _ P P P P P _ 
6 | _ P _ _ _ _ _ _ 
5 | _ _ _ _ _ _ _ P 
4 | P _ _ _ _ _ _ _ 
3 | _ _ P _ _ _ _ _ 
2 | _ P _ P P P P P 
1 | R N B Q K B N R 
-------------------
  | A B C D E F G H 

It is white's turn to play.
AI's move: g1h3
Move written: g1h3
[32;1m[Game] [0mPlayer's error code: 0
[32;1m[Game] [0mChecking move validity...
[32;1m[Board] [0mInitializing board...
[32;1m[Board] [0mLoading history file `championship/lizzie-iii-shallowcyan/history.csv`...
[32;1m[Board] [0mLoaded 4 move(s).
[32;1m[Board] [0mLoading move file `championship/lizzie-iii-shallowcyan/move.csv`...
[32;1m[Board] [0mWhite player is playing g1 to h3.
[32;1m[Board] [0m
[32;1m[Board] [0m    a b c d e f g h 
[32;1m[Board] [0m  -------------------
[32;1m[Board] [0m8 ||[30;1mr[0m|[30;1mk[0m|[30;1mb[0m|[30;1mQ[0m|[30;1mK[0m|[30;1mb[0m|[30;1mk[0m|[30;1mr[0m|| 8
[32;1m[Board] [0m  -------------------
[32;1m[Board] [0m7 ||[30;1mp[0m|[7;1m [0m|[30;1mp[0m|[30;1mp[0m|[30;1mp[0m|[30;1mp[0m|[30;1mp[0m|[7;1m [0m|| 7
[32;1m[Board] [0m  -------------------
[32;1m[Board] [0m6 ||[7;1m [0m|[30;1mp[0m|[7;1m [0m| |[7;1m [0m| |[7;1m [0m| || 6
[32;1m[Board] [0m  -------------------
[32;1m[Board] [0m5 || |[7;1m [0m| |[7;1m [0m| |[7;1m [0m| |[30;1mp[0m|| 5
[32;1m[Board] [0m  -------------------
[32;1m[Board] [0m4 ||[0;1mp[0m| |[7;1m [0m| |[7;1m [0m| |[7;1m [0m| || 4
[32;1m[Board] [0m  -------------------
[32;1m[Board] [0m3 || |[7;1m [0m|[0;1mp[0m|[7;1m [0m| |[7;1m [0m| |[0;1mk[0m|| 3
[32;1m[Board] [0m  -------------------
[32;1m[Board] [0m2 ||[7;1m [0m|[0;1mp[0m|[7;1m [0m|[0;1mp[0m|[0;1mp[0m|[0;1mp[0m|[0;1mp[0m|[0;1mp[0m|| 2
[32;1m[Board] [0m  -------------------
[32;1m[Board] [0m1 ||[0;1mr[0m|[0;1mk[0m|[0;1mb[0m|[0;1mQ[0m|[0;1mK[0m|[0;1mb[0m| |[0;1mr[0m|| 1
[32;1m[Board] [0m  -------------------
[32;1m[Board] [0m    a b c d e f g h
[32;1m[Board] [0m
[32;1m[Referee] [0mThis is the turn of the Black player...
8 [100m ♖ [43m ♘ [100m ♗ [43m ♕ [100m ♔ [43m ♗ [100m ♘ [43m ♖ [40m
7 [43m ♙ [100m   [43m ♙ [100m ♙ [43m ♙ [100m ♙ [43m ♙ [100m   [40m
6 [100m   [43m ♙ [100m   [43m   [100m   [43m   [100m   [43m   [40m
5 [43m   [100m   [43m   [100m   [43m   [100m   [43m   [100m ♙ [40m
4 [100m ♟ [43m   [100m   [43m   [100m   [43m   [100m   [43m   [40m
3 [43m   [100m   [43m ♟ [100m   [43m   [100m   [43m   [100m ♞ [40m
2 [100m   [43m ♟ [100m   [43m ♟ [100m ♟ [43m ♟ [100m ♟ [43m ♟ [40m
1 [43m ♜ [100m ♞ [43m ♝ [100m ♛ [43m ♚ [100m ♝ [43m   [100m ♜ [40m
   a  b  c  d  e  f  g  h  
[32;1m[Game] [0mPlayer's error code: 0
[32;1m[Game] [0mChecking move validity...
[32;1m[Board] [0mInitializing board...
[32;1m[Board] [0mLoading history file `championship/lizzie-iii-shallowcyan/history.csv`...
[32;1m[Board] [0mLoaded 5 move(s).
[32;1m[Board] [0mLoading move file `championship/lizzie-iii-shallowcyan/move.csv`...
[32;1m[Board] [0mBlack player is playing h8 to h7.
[32;1m[Board] [0m
[32;1m[Board] [0m    a b c d e f g h 
[32;1m[Board] [0m  -------------------
[32;1m[Board] [0m8 ||[30;1mr[0m|[30;1mk[0m|[30;1mb[0m|[30;1mQ[0m|[30;1mK[0m|[30;1mb[0m|[30;1mk[0m| || 8
[32;1m[Board] [0m  -------------------
[32;1m[Board] [0m7 ||[30;1mp[0m|[7;1m [0m|[30;1mp[0m|[30;1mp[0m|[30;1mp[0m|[30;1mp[0m|[30;1mp[0m|[30;1mr[0m|| 7
[32;1m[Board] [0m  -------------------
[32;1m[Board] [0m6 ||[7;1m [0m|[30;1mp[0m|[7;1m [0m| |[7;1m [0m| |[7;1m [0m| || 6
[32;1m[Board] [0m  -------------------
[32;1m[Board] [0m5 || |[7;1m [0m| |[7;1m [0m| |[7;1m [0m| |[30;1mp[0m|| 5
[32;1m[Board] [0m  -------------------
[32;1m[Board] [0m4 ||[0;1mp[0m| |[7;1m [0m| |[7;1m [0m| |[7;1m [0m| || 4
[32;1m[Board] [0m  -------------------
[32;1m[Board] [0m3 || |[7;1m [0m|[0;1mp[0m|[7;1m [0m| |[7;1m [0m| |[0;1mk[0m|| 3
[32;1m[Board] [0m  -------------------
[32;1m[Board] [0m2 ||[7;1m [0m|[0;1mp[0m|[7;1m [0m|[0;1mp[0m|[0;1mp[0m|[0;1mp[0m|[0;1mp[0m|[0;1mp[0m|| 2
[32;1m[Board] [0m  -------------------
[32;1m[Board] [0m1 ||[0;1mr[0m|[0;1mk[0m|[0;1mb[0m|[0;1mQ[0m|[0;1mK[0m|[0;1mb[0m| |[0;1mr[0m|| 1
[32;1m[Board] [0m  -------------------
[32;1m[Board] [0m    a b c d e f g h
[32;1m[Board] [0m
[32;1m[Referee] [0mThis is the turn of the White player...
Input file: championship/lizzie-iii-shallowcyan/history.csv
Output file: championship/lizzie-iii-shallowcyan/move.csv
Turn of: white
Succesful move
c2c3
8 | R N B Q K B N R 
7 | P P P P P P P P 
6 | _ _ _ _ _ _ _ _ 
5 | _ _ _ _ _ _ _ _ 
4 | _ _ _ _ _ _ _ _ 
3 | _ _ P _ _ _ _ _ 
2 | P P _ P P P P P 
1 | R N B Q K B N R 
-------------------
  | A B C D E F G H 

Turn of: black
Succesful move
b7b6
8 | R N B Q K B N R 
7 | P _ P P P P P P 
6 | _ P _ _ _ _ _ _ 
5 | _ _ _ _ _ _ _ _ 
4 | _ _ _ _ _ _ _ _ 
3 | _ _ P _ _ _ _ _ 
2 | P P _ P P P P P 
1 | R N B Q K B N R 
-------------------
  | A B C D E F G H 

Turn of: white
Succesful move
a2a4
8 | R N B Q K B N R 
7 | P _ P P P P P P 
6 | _ P _ _ _ _ _ _ 
5 | _ _ _ _ _ _ _ _ 
4 | P _ _ _ _ _ _ _ 
3 | _ _ P _ _ _ _ _ 
2 | _ P _ P P P P P 
1 | R N B Q K B N R 
-------------------
  | A B C D E F G H 

Turn of: black
Succesful move
h7h5
8 | R N B Q K B N R 
7 | P _ P P P P P _ 
6 | _ P _ _ _ _ _ _ 
5 | _ _ _ _ _ _ _ P 
4 | P _ _ _ _ _ _ _ 
3 | _ _ P _ _ _ _ _ 
2 | _ P _ P P P P P 
1 | R N B Q K B N R 
-------------------
  | A B C D E F G H 

Turn of: white
Succesful move
g1h3
8 | R N B Q K B N R 
7 | P _ P P P P P _ 
6 | _ P _ _ _ _ _ _ 
5 | _ _ _ _ _ _ _ P 
4 | P _ _ _ _ _ _ _ 
3 | _ _ P _ _ _ _ N 
2 | _ P _ P P P P P 
1 | R N B Q K B _ R 
-------------------
  | A B C D E F G H 

Turn of: black
Succesful move
h8h7
8 | R N B Q K B N _ 
7 | P _ P P P P P R 
6 | _ P _ _ _ _ _ _ 
5 | _ _ _ _ _ _ _ P 
4 | P _ _ _ _ _ _ _ 
3 | _ _ P _ _ _ _ N 
2 | _ P _ P P P P P 
1 | R N B Q K B _ R 
-------------------
  | A B C D E F G H 

We are playing as White
Move history:
c2c3
b7b6
a2a4
h7h5
g1h3
h8h7
8 | R N B Q K B N _ 
7 | P _ P P P P P R 
6 | _ P _ _ _ _ _ _ 
5 | _ _ _ _ _ _ _ P 
4 | P _ _ _ _ _ _ _ 
3 | _ _ P _ _ _ _ N 
2 | _ P _ P P P P P 
1 | R N B Q K B _ R 
-------------------
  | A B C D E F G H 

It is white's turn to play.
AI's move: g2g4
Move written: g2g4
[32;1m[Game] [0mPlayer's error code: 0
[32;1m[Game] [0mChecking move validity...
[32;1m[Board] [0mInitializing board...
[32;1m[Board] [0mLoading history file `championship/lizzie-iii-shallowcyan/history.csv`...
[32;1m[Board] [0mLoaded 6 move(s).
[32;1m[Board] [0mLoading move file `championship/lizzie-iii-shallowcyan/move.csv`...
[32;1m[Board] [0mWhite player is playing g2 to g4.
[32;1m[Board] [0m
[32;1m[Board] [0m    a b c d e f g h 
[32;1m[Board] [0m  -------------------
[32;1m[Board] [0m8 ||[30;1mr[0m|[30;1mk[0m|[30;1mb[0m|[30;1mQ[0m|[30;1mK[0m|[30;1mb[0m|[30;1mk[0m| || 8
[32;1m[Board] [0m  -------------------
[32;1m[Board] [0m7 ||[30;1mp[0m|[7;1m [0m|[30;1mp[0m|[30;1mp[0m|[30;1mp[0m|[30;1mp[0m|[30;1mp[0m|[30;1mr[0m|| 7
[32;1m[Board] [0m  -------------------
[32;1m[Board] [0m6 ||[7;1m [0m|[30;1mp[0m|[7;1m [0m| |[7;1m [0m| |[7;1m [0m| || 6
[32;1m[Board] [0m  -------------------
[32;1m[Board] [0m5 || |[7;1m [0m| |[7;1m [0m| |[7;1m [0m| |[30;1mp[0m|| 5
[32;1m[Board] [0m  -------------------
[32;1m[Board] [0m4 ||[0;1mp[0m| |[7;1m [0m| |[7;1m [0m| |[0;1mp[0m| || 4
[32;1m[Board] [0m  -------------------
[32;1m[Board] [0m3 || |[7;1m [0m|[0;1mp[0m|[7;1m [0m| |[7;1m [0m| |[0;1mk[0m|| 3
[32;1m[Board] [0m  -------------------
[32;1m[Board] [0m2 ||[7;1m [0m|[0;1mp[0m|[7;1m [0m|[0;1mp[0m|[0;1mp[0m|[0;1mp[0m|[7;1m [0m|[0;1mp[0m|| 2
[32;1m[Board] [0m  -------------------
[32;1m[Board] [0m1 ||[0;1mr[0m|[0;1mk[0m|[0;1mb[0m|[0;1mQ[0m|[0;1mK[0m|[0;1mb[0m| |[0;1mr[0m|| 1
[32;1m[Board] [0m  -------------------
[32;1m[Board] [0m    a b c d e f g h
[32;1m[Board] [0m
[32;1m[Referee] [0mThis is the turn of the Black player...
8 [100m ♖ [43m ♘ [100m ♗ [43m ♕ [100m ♔ [43m ♗ [100m ♘ [43m   [40m
7 [43m ♙ [100m   [43m ♙ [100m ♙ [43m ♙ [100m ♙ [43m ♙ [100m ♖ [40m
6 [100m   [43m ♙ [100m   [43m   [100m   [43m   [100m   [43m   [40m
5 [43m   [100m   [43m   [100m   [43m   [100m   [43m   [100m ♙ [40m
4 [100m ♟ [43m   [100m   [43m   [100m   [43m   [100m ♟ [43m   [40m
3 [43m   [100m   [43m ♟ [100m   [43m   [100m   [43m   [100m ♞ [40m
2 [100m   [43m ♟ [100m   [43m ♟ [100m ♟ [43m ♟ [100m   [43m ♟ [40m
1 [43m ♜ [100m ♞ [43m ♝ [100m ♛ [43m ♚ [100m ♝ [43m   [100m ♜ [40m
   a  b  c  d  e  f  g  h  
[32;1m[Game] [0mPlayer's error code: 0
[32;1m[Game] [0mChecking move validity...
[32;1m[Board] [0mInitializing board...
[32;1m[Board] [0mLoading history file `championship/lizzie-iii-shallowcyan/history.csv`...
[32;1m[Board] [0mLoaded 7 move(s).
[32;1m[Board] [0mLoading move file `championship/lizzie-iii-shallowcyan/move.csv`...
[32;1m[Board] [0mBlack player is playing c8 to a6.
[32;1m[Board] [0m
[32;1m[Board] [0m    a b c d e f g h 
[32;1m[Board] [0m  -------------------
[32;1m[Board] [0m8 ||[30;1mr[0m|[30;1mk[0m|[7;1m [0m|[30;1mQ[0m|[30;1mK[0m|[30;1mb[0m|[30;1mk[0m| || 8
[32;1m[Board] [0m  -------------------
[32;1m[Board] [0m7 ||[30;1mp[0m|[7;1m [0m|[30;1mp[0m|[30;1mp[0m|[30;1mp[0m|[30;1mp[0m|[30;1mp[0m|[30;1mr[0m|| 7
[32;1m[Board] [0m  -------------------
[32;1m[Board] [0m6 ||[30;1mb[0m|[30;1mp[0m|[7;1m [0m| |[7;1m [0m| |[7;1m [0m| || 6
[32;1m[Board] [0m  -------------------
[32;1m[Board] [0m5 || |[7;1m [0m| |[7;1m [0m| |[7;1m [0m| |[30;1mp[0m|| 5
[32;1m[Board] [0m  -------------------
[32;1m[Board] [0m4 ||[0;1mp[0m| |[7;1m [0m| |[7;1m [0m| |[0;1mp[0m| || 4
[32;1m[Board] [0m  -------------------
[32;1m[Board] [0m3 || |[7;1m [0m|[0;1mp[0m|[7;1m [0m| |[7;1m [0m| |[0;1mk[0m|| 3
[32;1m[Board] [0m  -------------------
[32;1m[Board] [0m2 ||[7;1m [0m|[0;1mp[0m|[7;1m [0m|[0;1mp[0m|[0;1mp[0m|[0;1mp[0m|[7;1m [0m|[0;1mp[0m|| 2
[32;1m[Board] [0m  -------------------
[32;1m[Board] [0m1 ||[0;1mr[0m|[0;1mk[0m|[0;1mb[0m|[0;1mQ[0m|[0;1mK[0m|[0;1mb[0m| |[0;1mr[0m|| 1
[32;1m[Board] [0m  -------------------
[32;1m[Board] [0m    a b c d e f g h
[32;1m[Board] [0m
[32;1m[Referee] [0mThis is the turn of the White player...
Input file: championship/lizzie-iii-shallowcyan/history.csv
Output file: championship/lizzie-iii-shallowcyan/move.csv
Turn of: white
Succesful move
c2c3
8 | R N B Q K B N R 
7 | P P P P P P P P 
6 | _ _ _ _ _ _ _ _ 
5 | _ _ _ _ _ _ _ _ 
4 | _ _ _ _ _ _ _ _ 
3 | _ _ P _ _ _ _ _ 
2 | P P _ P P P P P 
1 | R N B Q K B N R 
-------------------
  | A B C D E F G H 

Turn of: black
Succesful move
b7b6
8 | R N B Q K B N R 
7 | P _ P P P P P P 
6 | _ P _ _ _ _ _ _ 
5 | _ _ _ _ _ _ _ _ 
4 | _ _ _ _ _ _ _ _ 
3 | _ _ P _ _ _ _ _ 
2 | P P _ P P P P P 
1 | R N B Q K B N R 
-------------------
  | A B C D E F G H 

Turn of: white
Succesful move
a2a4
8 | R N B Q K B N R 
7 | P _ P P P P P P 
6 | _ P _ _ _ _ _ _ 
5 | _ _ _ _ _ _ _ _ 
4 | P _ _ _ _ _ _ _ 
3 | _ _ P _ _ _ _ _ 
2 | _ P _ P P P P P 
1 | R N B Q K B N R 
-------------------
  | A B C D E F G H 

Turn of: black
Succesful move
h7h5
8 | R N B Q K B N R 
7 | P _ P P P P P _ 
6 | _ P _ _ _ _ _ _ 
5 | _ _ _ _ _ _ _ P 
4 | P _ _ _ _ _ _ _ 
3 | _ _ P _ _ _ _ _ 
2 | _ P _ P P P P P 
1 | R N B Q K B N R 
-------------------
  | A B C D E F G H 

Turn of: white
Succesful move
g1h3
8 | R N B Q K B N R 
7 | P _ P P P P P _ 
6 | _ P _ _ _ _ _ _ 
5 | _ _ _ _ _ _ _ P 
4 | P _ _ _ _ _ _ _ 
3 | _ _ P _ _ _ _ N 
2 | _ P _ P P P P P 
1 | R N B Q K B _ R 
-------------------
  | A B C D E F G H 

Turn of: black
Succesful move
h8h7
8 | R N B Q K B N _ 
7 | P _ P P P P P R 
6 | _ P _ _ _ _ _ _ 
5 | _ _ _ _ _ _ _ P 
4 | P _ _ _ _ _ _ _ 
3 | _ _ P _ _ _ _ N 
2 | _ P _ P P P P P 
1 | R N B Q K B _ R 
-------------------
  | A B C D E F G H 

Turn of: white
Succesful move
g2g4
8 | R N B Q K B N _ 
7 | P _ P P P P P R 
6 | _ P _ _ _ _ _ _ 
5 | _ _ _ _ _ _ _ P 
4 | P _ _ _ _ _ P _ 
3 | _ _ P _ _ _ _ N 
2 | _ P _ P P P _ P 
1 | R N B Q K B _ R 
-------------------
  | A B C D E F G H 

Turn of: black
Succesful move
c8a6
8 | R N _ Q K B N _ 
7 | P _ P P P P P R 
6 | B P _ _ _ _ _ _ 
5 | _ _ _ _ _ _ _ P 
4 | P _ _ _ _ _ P _ 
3 | _ _ P _ _ _ _ N 
2 | _ P _ P P P _ P 
1 | R N B Q K B _ R 
-------------------
  | A B C D E F G H 

We are playing as White
Move history:
c2c3
b7b6
a2a4
h7h5
g1h3
h8h7
g2g4
c8a6
8 | R N _ Q K B N _ 
7 | P _ P P P P P R 
6 | B P _ _ _ _ _ _ 
5 | _ _ _ _ _ _ _ P 
4 | P _ _ _ _ _ P _ 
3 | _ _ P _ _ _ _ N 
2 | _ P _ P P P _ P 
1 | R N B Q K B _ R 
-------------------
  | A B C D E F G H 

It is white's turn to play.
AI's move: f2f3
Move written: f2f3
[32;1m[Game] [0mPlayer's error code: 0
[32;1m[Game] [0mChecking move validity...
[32;1m[Board] [0mInitializing board...
[32;1m[Board] [0mLoading history file `championship/lizzie-iii-shallowcyan/history.csv`...
[32;1m[Board] [0mLoaded 8 move(s).
[32;1m[Board] [0mLoading move file `championship/lizzie-iii-shallowcyan/move.csv`...
[32;1m[Board] [0mWhite player is playing f2 to f3.
[32;1m[Board] [0m
[32;1m[Board] [0m    a b c d e f g h 
[32;1m[Board] [0m  -------------------
[32;1m[Board] [0m8 ||[30;1mr[0m|[30;1mk[0m|[7;1m [0m|[30;1mQ[0m|[30;1mK[0m|[30;1mb[0m|[30;1mk[0m| || 8
[32;1m[Board] [0m  -------------------
[32;1m[Board] [0m7 ||[30;1mp[0m|[7;1m [0m|[30;1mp[0m|[30;1mp[0m|[30;1mp[0m|[30;1mp[0m|[30;1mp[0m|[30;1mr[0m|| 7
[32;1m[Board] [0m  -------------------
[32;1m[Board] [0m6 ||[30;1mb[0m|[30;1mp[0m|[7;1m [0m| |[7;1m [0m| |[7;1m [0m| || 6
[32;1m[Board] [0m  -------------------
[32;1m[Board] [0m5 || |[7;1m [0m| |[7;1m [0m| |[7;1m [0m| |[30;1mp[0m|| 5
[32;1m[Board] [0m  -------------------
[32;1m[Board] [0m4 ||[0;1mp[0m| |[7;1m [0m| |[7;1m [0m| |[0;1mp[0m| || 4
[32;1m[Board] [0m  -------------------
[32;1m[Board] [0m3 || |[7;1m [0m|[0;1mp[0m|[7;1m [0m| |[0;1mp[0m| |[0;1mk[0m|| 3
[32;1m[Board] [0m  -------------------
[32;1m[Board] [0m2 ||[7;1m [0m|[0;1mp[0m|[7;1m [0m|[0;1mp[0m|[0;1mp[0m| |[7;1m [0m|[0;1mp[0m|| 2
[32;1m[Board] [0m  -------------------
[32;1m[Board] [0m1 ||[0;1mr[0m|[0;1mk[0m|[0;1mb[0m|[0;1mQ[0m|[0;1mK[0m|[0;1mb[0m| |[0;1mr[0m|| 1
[32;1m[Board] [0m  -------------------
[32;1m[Board] [0m    a b c d e f g h
[32;1m[Board] [0m
[32;1m[Referee] [0mThis is the turn of the Black player...
8 [100m ♖ [43m ♘ [100m   [43m ♕ [100m ♔ [43m ♗ [100m ♘ [43m   [40m
7 [43m ♙ [100m   [43m ♙ [100m ♙ [43m ♙ [100m ♙ [43m ♙ [100m ♖ [40m
6 [100m ♗ [43m ♙ [100m   [43m   [100m   [43m   [100m   [43m   [40m
5 [43m   [100m   [43m   [100m   [43m   [100m   [43m   [100m ♙ [40m
4 [100m ♟ [43m   [100m   [43m   [100m   [43m   [100m ♟ [43m   [40m
3 [43m   [100m   [43m ♟ [100m   [43m   [100m ♟ [43m   [100m ♞ [40m
2 [100m   [43m ♟ [100m   [43m ♟ [100m ♟ [43m   [100m   [43m ♟ [40m
1 [43m ♜ [100m ♞ [43m ♝ [100m ♛ [43m ♚ [100m ♝ [43m   [100m ♜ [40m
   a  b  c  d  e  f  g  h  
[32;1m[Game] [0mPlayer's error code: 0
[32;1m[Game] [0mChecking move validity...
[32;1m[Board] [0mInitializing board...
[32;1m[Board] [0mLoading history file `championship/lizzie-iii-shallowcyan/history.csv`...
[32;1m[Board] [0mLoaded 9 move(s).
[32;1m[Board] [0mLoading move file `championship/lizzie-iii-shallowcyan/move.csv`...
[32;1m[Board] [0mBlack player is playing f7 to f6.
[32;1m[Board] [0m
[32;1m[Board] [0m    a b c d e f g h 
[32;1m[Board] [0m  -------------------
[32;1m[Board] [0m8 ||[30;1mr[0m|[30;1mk[0m|[7;1m [0m|[30;1mQ[0m|[30;1mK[0m|[30;1mb[0m|[30;1mk[0m| || 8
[32;1m[Board] [0m  -------------------
[32;1m[Board] [0m7 ||[30;1mp[0m|[7;1m [0m|[30;1mp[0m|[30;1mp[0m|[30;1mp[0m|[7;1m [0m|[30;1mp[0m|[30;1mr[0m|| 7
[32;1m[Board] [0m  -------------------
[32;1m[Board] [0m6 ||[30;1mb[0m|[30;1mp[0m|[7;1m [0m| |[7;1m [0m|[30;1mp[0m|[7;1m [0m| || 6
[32;1m[Board] [0m  -------------------
[32;1m[Board] [0m5 || |[7;1m [0m| |[7;1m [0m| |[7;1m [0m| |[30;1mp[0m|| 5
[32;1m[Board] [0m  -------------------
[32;1m[Board] [0m4 ||[0;1mp[0m| |[7;1m [0m| |[7;1m [0m| |[0;1mp[0m| || 4
[32;1m[Board] [0m  -------------------
[32;1m[Board] [0m3 || |[7;1m [0m|[0;1mp[0m|[7;1m [0m| |[0;1mp[0m| |[0;1mk[0m|| 3
[32;1m[Board] [0m  -------------------
[32;1m[Board] [0m2 ||[7;1m [0m|[0;1mp[0m|[7;1m [0m|[0;1mp[0m|[0;1mp[0m| |[7;1m [0m|[0;1mp[0m|| 2
[32;1m[Board] [0m  -------------------
[32;1m[Board] [0m1 ||[0;1mr[0m|[0;1mk[0m|[0;1mb[0m|[0;1mQ[0m|[0;1mK[0m|[0;1mb[0m| |[0;1mr[0m|| 1
[32;1m[Board] [0m  -------------------
[32;1m[Board] [0m    a b c d e f g h
[32;1m[Board] [0m
[32;1m[Referee] [0mThis is the turn of the White player...
Input file: championship/lizzie-iii-shallowcyan/history.csv
Output file: championship/lizzie-iii-shallowcyan/move.csv
Turn of: white
Succesful move
c2c3
8 | R N B Q K B N R 
7 | P P P P P P P P 
6 | _ _ _ _ _ _ _ _ 
5 | _ _ _ _ _ _ _ _ 
4 | _ _ _ _ _ _ _ _ 
3 | _ _ P _ _ _ _ _ 
2 | P P _ P P P P P 
1 | R N B Q K B N R 
-------------------
  | A B C D E F G H 

Turn of: black
Succesful move
b7b6
8 | R N B Q K B N R 
7 | P _ P P P P P P 
6 | _ P _ _ _ _ _ _ 
5 | _ _ _ _ _ _ _ _ 
4 | _ _ _ _ _ _ _ _ 
3 | _ _ P _ _ _ _ _ 
2 | P P _ P P P P P 
1 | R N B Q K B N R 
-------------------
  | A B C D E F G H 

Turn of: white
Succesful move
a2a4
8 | R N B Q K B N R 
7 | P _ P P P P P P 
6 | _ P _ _ _ _ _ _ 
5 | _ _ _ _ _ _ _ _ 
4 | P _ _ _ _ _ _ _ 
3 | _ _ P _ _ _ _ _ 
2 | _ P _ P P P P P 
1 | R N B Q K B N R 
-------------------
  | A B C D E F G H 

Turn of: black
Succesful move
h7h5
8 | R N B Q K B N R 
7 | P _ P P P P P _ 
6 | _ P _ _ _ _ _ _ 
5 | _ _ _ _ _ _ _ P 
4 | P _ _ _ _ _ _ _ 
3 | _ _ P _ _ _ _ _ 
2 | _ P _ P P P P P 
1 | R N B Q K B N R 
-------------------
  | A B C D E F G H 

Turn of: white
Succesful move
g1h3
8 | R N B Q K B N R 
7 | P _ P P P P P _ 
6 | _ P _ _ _ _ _ _ 
5 | _ _ _ _ _ _ _ P 
4 | P _ _ _ _ _ _ _ 
3 | _ _ P _ _ _ _ N 
2 | _ P _ P P P P P 
1 | R N B Q K B _ R 
-------------------
  | A B C D E F G H 

Turn of: black
Succesful move
h8h7
8 | R N B Q K B N _ 
7 | P _ P P P P P R 
6 | _ P _ _ _ _ _ _ 
5 | _ _ _ _ _ _ _ P 
4 | P _ _ _ _ _ _ _ 
3 | _ _ P _ _ _ _ N 
2 | _ P _ P P P P P 
1 | R N B Q K B _ R 
-------------------
  | A B C D E F G H 

Turn of: white
Succesful move
g2g4
8 | R N B Q K B N _ 
7 | P _ P P P P P R 
6 | _ P _ _ _ _ _ _ 
5 | _ _ _ _ _ _ _ P 
4 | P _ _ _ _ _ P _ 
3 | _ _ P _ _ _ _ N 
2 | _ P _ P P P _ P 
1 | R N B Q K B _ R 
-------------------
  | A B C D E F G H 

Turn of: black
Succesful move
c8a6
8 | R N _ Q K B N _ 
7 | P _ P P P P P R 
6 | B P _ _ _ _ _ _ 
5 | _ _ _ _ _ _ _ P 
4 | P _ _ _ _ _ P _ 
3 | _ _ P _ _ _ _ N 
2 | _ P _ P P P _ P 
1 | R N B Q K B _ R 
-------------------
  | A B C D E F G H 

Turn of: white
Succesful move
f2f3
8 | R N _ Q K B N _ 
7 | P _ P P P P P R 
6 | B P _ _ _ _ _ _ 
5 | _ _ _ _ _ _ _ P 
4 | P _ _ _ _ _ P _ 
3 | _ _ P _ _ P _ N 
2 | _ P _ P P _ _ P 
1 | R N B Q K B _ R 
-------------------
  | A B C D E F G H 

Turn of: black
Succesful move
f7f6
8 | R N _ Q K B N _ 
7 | P _ P P P _ P R 
6 | B P _ _ _ P _ _ 
5 | _ _ _ _ _ _ _ P 
4 | P _ _ _ _ _ P _ 
3 | _ _ P _ _ P _ N 
2 | _ P _ P P _ _ P 
1 | R N B Q K B _ R 
-------------------
  | A B C D E F G H 

We are playing as White
Move history:
c2c3
b7b6
a2a4
h7h5
g1h3
h8h7
g2g4
c8a6
f2f3
f7f6
8 | R N _ Q K B N _ 
7 | P _ P P P _ P R 
6 | B P _ _ _ P _ _ 
5 | _ _ _ _ _ _ _ P 
4 | P _ _ _ _ _ P _ 
3 | _ _ P _ _ P _ N 
2 | _ P _ P P _ _ P 
1 | R N B Q K B _ R 
-------------------
  | A B C D E F G H 

It is white's turn to play.
AI's move: h3f4
Move written: h3f4
[32;1m[Game] [0mPlayer's error code: 0
[32;1m[Game] [0mChecking move validity...
[32;1m[Board] [0mInitializing board...
[32;1m[Board] [0mLoading history file `championship/lizzie-iii-shallowcyan/history.csv`...
[32;1m[Board] [0mLoaded 10 move(s).
[32;1m[Board] [0mLoading move file `championship/lizzie-iii-shallowcyan/move.csv`...
[32;1m[Board] [0mWhite player is playing h3 to f4.
[32;1m[Board] [0m
[32;1m[Board] [0m    a b c d e f g h 
[32;1m[Board] [0m  -------------------
[32;1m[Board] [0m8 ||[30;1mr[0m|[30;1mk[0m|[7;1m [0m|[30;1mQ[0m|[30;1mK[0m|[30;1mb[0m|[30;1mk[0m| || 8
[32;1m[Board] [0m  -------------------
[32;1m[Board] [0m7 ||[30;1mp[0m|[7;1m [0m|[30;1mp[0m|[30;1mp[0m|[30;1mp[0m|[7;1m [0m|[30;1mp[0m|[30;1mr[0m|| 7
[32;1m[Board] [0m  -------------------
[32;1m[Board] [0m6 ||[30;1mb[0m|[30;1mp[0m|[7;1m [0m| |[7;1m [0m|[30;1mp[0m|[7;1m [0m| || 6
[32;1m[Board] [0m  -------------------
[32;1m[Board] [0m5 || |[7;1m [0m| |[7;1m [0m| |[7;1m [0m| |[30;1mp[0m|| 5
[32;1m[Board] [0m  -------------------
[32;1m[Board] [0m4 ||[0;1mp[0m| |[7;1m [0m| |[7;1m [0m|[0;1mk[0m|[0;1mp[0m| || 4
[32;1m[Board] [0m  -------------------
[32;1m[Board] [0m3 || |[7;1m [0m|[0;1mp[0m|[7;1m [0m| |[0;1mp[0m| |[7;1m [0m|| 3
[32;1m[Board] [0m  -------------------
[32;1m[Board] [0m2 ||[7;1m [0m|[0;1mp[0m|[7;1m [0m|[0;1mp[0m|[0;1mp[0m| |[7;1m [0m|[0;1mp[0m|| 2
[32;1m[Board] [0m  -------------------
[32;1m[Board] [0m1 ||[0;1mr[0m|[0;1mk[0m|[0;1mb[0m|[0;1mQ[0m|[0;1mK[0m|[0;1mb[0m| |[0;1mr[0m|| 1
[32;1m[Board] [0m  -------------------
[32;1m[Board] [0m    a b c d e f g h
[32;1m[Board] [0m
[32;1m[Referee] [0mThis is the turn of the Black player...
8 [100m ♖ [43m ♘ [100m   [43m ♕ [100m ♔ [43m ♗ [100m ♘ [43m   [40m
7 [43m ♙ [100m   [43m ♙ [100m ♙ [43m ♙ [100m   [43m ♙ [100m ♖ [40m
6 [100m ♗ [43m ♙ [100m   [43m   [100m   [43m ♙ [100m   [43m   [40m
5 [43m   [100m   [43m   [100m   [43m   [100m   [43m   [100m ♙ [40m
4 [100m ♟ [43m   [100m   [43m   [100m   [43m ♞ [100m ♟ [43m   [40m
3 [43m   [100m   [43m ♟ [100m   [43m   [100m ♟ [43m   [100m   [40m
2 [100m   [43m ♟ [100m   [43m ♟ [100m ♟ [43m   [100m   [43m ♟ [40m
1 [43m ♜ [100m ♞ [43m ♝ [100m ♛ [43m ♚ [100m ♝ [43m   [100m ♜ [40m
   a  b  c  d  e  f  g  h  
[32;1m[Game] [0mPlayer's error code: 0
[32;1m[Game] [0mChecking move validity...
[32;1m[Board] [0mInitializing board...
[32;1m[Board] [0mLoading history file `championship/lizzie-iii-shallowcyan/history.csv`...
[32;1m[Board] [0mLoaded 11 move(s).
[32;1m[Board] [0mLoading move file `championship/lizzie-iii-shallowcyan/move.csv`...
[32;1m[Board] [0mBlack player is playing e7 to e5.
[32;1m[Board] [0m
[32;1m[Board] [0m    a b c d e f g h 
[32;1m[Board] [0m  -------------------
[32;1m[Board] [0m8 ||[30;1mr[0m|[30;1mk[0m|[7;1m [0m|[30;1mQ[0m|[30;1mK[0m|[30;1mb[0m|[30;1mk[0m| || 8
[32;1m[Board] [0m  -------------------
[32;1m[Board] [0m7 ||[30;1mp[0m|[7;1m [0m|[30;1mp[0m|[30;1mp[0m| |[7;1m [0m|[30;1mp[0m|[30;1mr[0m|| 7
[32;1m[Board] [0m  -------------------
[32;1m[Board] [0m6 ||[30;1mb[0m|[30;1mp[0m|[7;1m [0m| |[7;1m [0m|[30;1mp[0m|[7;1m [0m| || 6
[32;1m[Board] [0m  -------------------
[32;1m[Board] [0m5 || |[7;1m [0m| |[7;1m [0m|[30;1mp[0m|[7;1m [0m| |[30;1mp[0m|| 5
[32;1m[Board] [0m  -------------------
[32;1m[Board] [0m4 ||[0;1mp[0m| |[7;1m [0m| |[7;1m [0m|[0;1mk[0m|[0;1mp[0m| || 4
[32;1m[Board] [0m  -------------------
[32;1m[Board] [0m3 || |[7;1m [0m|[0;1mp[0m|[7;1m [0m| |[0;1mp[0m| |[7;1m [0m|| 3
[32;1m[Board] [0m  -------------------
[32;1m[Board] [0m2 ||[7;1m [0m|[0;1mp[0m|[7;1m [0m|[0;1mp[0m|[0;1mp[0m| |[7;1m [0m|[0;1mp[0m|| 2
[32;1m[Board] [0m  -------------------
[32;1m[Board] [0m1 ||[0;1mr[0m|[0;1mk[0m|[0;1mb[0m|[0;1mQ[0m|[0;1mK[0m|[0;1mb[0m| |[0;1mr[0m|| 1
[32;1m[Board] [0m  -------------------
[32;1m[Board] [0m    a b c d e f g h
[32;1m[Board] [0m
[32;1m[Referee] [0mThis is the turn of the White player...
Input file: championship/lizzie-iii-shallowcyan/history.csv
Output file: championship/lizzie-iii-shallowcyan/move.csv
Turn of: white
Succesful move
c2c3
8 | R N B Q K B N R 
7 | P P P P P P P P 
6 | _ _ _ _ _ _ _ _ 
5 | _ _ _ _ _ _ _ _ 
4 | _ _ _ _ _ _ _ _ 
3 | _ _ P _ _ _ _ _ 
2 | P P _ P P P P P 
1 | R N B Q K B N R 
-------------------
  | A B C D E F G H 

Turn of: black
Succesful move
b7b6
8 | R N B Q K B N R 
7 | P _ P P P P P P 
6 | _ P _ _ _ _ _ _ 
5 | _ _ _ _ _ _ _ _ 
4 | _ _ _ _ _ _ _ _ 
3 | _ _ P _ _ _ _ _ 
2 | P P _ P P P P P 
1 | R N B Q K B N R 
-------------------
  | A B C D E F G H 

Turn of: white
Succesful move
a2a4
8 | R N B Q K B N R 
7 | P _ P P P P P P 
6 | _ P _ _ _ _ _ _ 
5 | _ _ _ _ _ _ _ _ 
4 | P _ _ _ _ _ _ _ 
3 | _ _ P _ _ _ _ _ 
2 | _ P _ P P P P P 
1 | R N B Q K B N R 
-------------------
  | A B C D E F G H 

Turn of: black
Succesful move
h7h5
8 | R N B Q K B N R 
7 | P _ P P P P P _ 
6 | _ P _ _ _ _ _ _ 
5 | _ _ _ _ _ _ _ P 
4 | P _ _ _ _ _ _ _ 
3 | _ _ P _ _ _ _ _ 
2 | _ P _ P P P P P 
1 | R N B Q K B N R 
-------------------
  | A B C D E F G H 

Turn of: white
Succesful move
g1h3
8 | R N B Q K B N R 
7 | P _ P P P P P _ 
6 | _ P _ _ _ _ _ _ 
5 | _ _ _ _ _ _ _ P 
4 | P _ _ _ _ _ _ _ 
3 | _ _ P _ _ _ _ N 
2 | _ P _ P P P P P 
1 | R N B Q K B _ R 
-------------------
  | A B C D E F G H 

Turn of: black
Succesful move
h8h7
8 | R N B Q K B N _ 
7 | P _ P P P P P R 
6 | _ P _ _ _ _ _ _ 
5 | _ _ _ _ _ _ _ P 
4 | P _ _ _ _ _ _ _ 
3 | _ _ P _ _ _ _ N 
2 | _ P _ P P P P P 
1 | R N B Q K B _ R 
-------------------
  | A B C D E F G H 

Turn of: white
Succesful move
g2g4
8 | R N B Q K B N _ 
7 | P _ P P P P P R 
6 | _ P _ _ _ _ _ _ 
5 | _ _ _ _ _ _ _ P 
4 | P _ _ _ _ _ P _ 
3 | _ _ P _ _ _ _ N 
2 | _ P _ P P P _ P 
1 | R N B Q K B _ R 
-------------------
  | A B C D E F G H 

Turn of: black
Succesful move
c8a6
8 | R N _ Q K B N _ 
7 | P _ P P P P P R 
6 | B P _ _ _ _ _ _ 
5 | _ _ _ _ _ _ _ P 
4 | P _ _ _ _ _ P _ 
3 | _ _ P _ _ _ _ N 
2 | _ P _ P P P _ P 
1 | R N B Q K B _ R 
-------------------
  | A B C D E F G H 

Turn of: white
Succesful move
f2f3
8 | R N _ Q K B N _ 
7 | P _ P P P P P R 
6 | B P _ _ _ _ _ _ 
5 | _ _ _ _ _ _ _ P 
4 | P _ _ _ _ _ P _ 
3 | _ _ P _ _ P _ N 
2 | _ P _ P P _ _ P 
1 | R N B Q K B _ R 
-------------------
  | A B C D E F G H 

Turn of: black
Succesful move
f7f6
8 | R N _ Q K B N _ 
7 | P _ P P P _ P R 
6 | B P _ _ _ P _ _ 
5 | _ _ _ _ _ _ _ P 
4 | P _ _ _ _ _ P _ 
3 | _ _ P _ _ P _ N 
2 | _ P _ P P _ _ P 
1 | R N B Q K B _ R 
-------------------
  | A B C D E F G H 

Turn of: white
Succesful move
h3f4
8 | R N _ Q K B N _ 
7 | P _ P P P _ P R 
6 | B P _ _ _ P _ _ 
5 | _ _ _ _ _ _ _ P 
4 | P _ _ _ _ N P _ 
3 | _ _ P _ _ P _ _ 
2 | _ P _ P P _ _ P 
1 | R N B Q K B _ R 
-------------------
  | A B C D E F G H 

Turn of: black
Succesful move
e7e5
8 | R N _ Q K B N _ 
7 | P _ P P _ _ P R 
6 | B P _ _ _ P _ _ 
5 | _ _ _ _ P _ _ P 
4 | P _ _ _ _ N P _ 
3 | _ _ P _ _ P _ _ 
2 | _ P _ P P _ _ P 
1 | R N B Q K B _ R 
-------------------
  | A B C D E F G H 

We are playing as White
Move history:
c2c3
b7b6
a2a4
h7h5
g1h3
h8h7
g2g4
c8a6
f2f3
f7f6
h3f4
e7e5
8 | R N _ Q K B N _ 
7 | P _ P P _ _ P R 
6 | B P _ _ _ P _ _ 
5 | _ _ _ _ P _ _ P 
4 | P _ _ _ _ N P _ 
3 | _ _ P _ _ P _ _ 
2 | _ P _ P P _ _ P 
1 | R N B Q K B _ R 
-------------------
  | A B C D E F G H 

It is white's turn to play.
AI's move: d1c2
Move written: d1c2
[32;1m[Game] [0mPlayer's error code: 0
[32;1m[Game] [0mChecking move validity...
[32;1m[Board] [0mInitializing board...
[32;1m[Board] [0mLoading history file `championship/lizzie-iii-shallowcyan/history.csv`...
[32;1m[Board] [0mLoaded 12 move(s).
[32;1m[Board] [0mLoading move file `championship/lizzie-iii-shallowcyan/move.csv`...
[32;1m[Board] [0mWhite player is playing d1 to c2.
[32;1m[Board] [0m
[32;1m[Board] [0m    a b c d e f g h 
[32;1m[Board] [0m  -------------------
[32;1m[Board] [0m8 ||[30;1mr[0m|[30;1mk[0m|[7;1m [0m|[30;1mQ[0m|[30;1mK[0m|[30;1mb[0m|[30;1mk[0m| || 8
[32;1m[Board] [0m  -------------------
[32;1m[Board] [0m7 ||[30;1mp[0m|[7;1m [0m|[30;1mp[0m|[30;1mp[0m| |[7;1m [0m|[30;1mp[0m|[30;1mr[0m|| 7
[32;1m[Board] [0m  -------------------
[32;1m[Board] [0m6 ||[30;1mb[0m|[30;1mp[0m|[7;1m [0m| |[7;1m [0m|[30;1mp[0m|[7;1m [0m| || 6
[32;1m[Board] [0m  -------------------
[32;1m[Board] [0m5 || |[7;1m [0m| |[7;1m [0m|[30;1mp[0m|[7;1m [0m| |[30;1mp[0m|| 5
[32;1m[Board] [0m  -------------------
[32;1m[Board] [0m4 ||[0;1mp[0m| |[7;1m [0m| |[7;1m [0m|[0;1mk[0m|[0;1mp[0m| || 4
[32;1m[Board] [0m  -------------------
[32;1m[Board] [0m3 || |[7;1m [0m|[0;1mp[0m|[7;1m [0m| |[0;1mp[0m| |[7;1m [0m|| 3
[32;1m[Board] [0m  -------------------
[32;1m[Board] [0m2 ||[7;1m [0m|[0;1mp[0m|[0;1mQ[0m|[0;1mp[0m|[0;1mp[0m| |[7;1m [0m|[0;1mp[0m|| 2
[32;1m[Board] [0m  -------------------
[32;1m[Board] [0m1 ||[0;1mr[0m|[0;1mk[0m|[0;1mb[0m|[7;1m [0m|[0;1mK[0m|[0;1mb[0m| |[0;1mr[0m|| 1
[32;1m[Board] [0m  -------------------
[32;1m[Board] [0m    a b c d e f g h
[32;1m[Board] [0m
[32;1m[Referee] [0mThis is the turn of the Black player...
8 [100m ♖ [43m ♘ [100m   [43m ♕ [100m ♔ [43m ♗ [100m ♘ [43m   [40m
7 [43m ♙ [100m   [43m ♙ [100m ♙ [43m   [100m   [43m ♙ [100m ♖ [40m
6 [100m ♗ [43m ♙ [100m   [43m   [100m   [43m ♙ [100m   [43m   [40m
5 [43m   [100m   [43m   [100m   [43m ♙ [100m   [43m   [100m ♙ [40m
4 [100m ♟ [43m   [100m   [43m   [100m   [43m ♞ [100m ♟ [43m   [40m
3 [43m   [100m   [43m ♟ [100m   [43m   [100m ♟ [43m   [100m   [40m
2 [100m   [43m ♟ [100m ♛ [43m ♟ [100m ♟ [43m   [100m   [43m ♟ [40m
1 [43m ♜ [100m ♞ [43m ♝ [100m   [43m ♚ [100m ♝ [43m   [100m ♜ [40m
   a  b  c  d  e  f  g  h  
[32;1m[Game] [0mPlayer's error code: 0
[32;1m[Game] [0mChecking move validity...
[32;1m[Board] [0mInitializing board...
[32;1m[Board] [0mLoading history file `championship/lizzie-iii-shallowcyan/history.csv`...
[32;1m[Board] [0mLoaded 13 move(s).
[32;1m[Board] [0mLoading move file `championship/lizzie-iii-shallowcyan/move.csv`...
[32;1m[Board] [0mBlack player is playing f6 to f5.
[32;1m[Board] [0m
[32;1m[Board] [0m    a b c d e f g h 
[32;1m[Board] [0m  -------------------
[32;1m[Board] [0m8 ||[30;1mr[0m|[30;1mk[0m|[7;1m [0m|[30;1mQ[0m|[30;1mK[0m|[30;1mb[0m|[30;1mk[0m| || 8
[32;1m[Board] [0m  -------------------
[32;1m[Board] [0m7 ||[30;1mp[0m|[7;1m [0m|[30;1mp[0m|[30;1mp[0m| |[7;1m [0m|[30;1mp[0m|[30;1mr[0m|| 7
[32;1m[Board] [0m  -------------------
[32;1m[Board] [0m6 ||[30;1mb[0m|[30;1mp[0m|[7;1m [0m| |[7;1m [0m| |[7;1m [0m| || 6
[32;1m[Board] [0m  -------------------
[32;1m[Board] [0m5 || |[7;1m [0m| |[7;1m [0m|[30;1mp[0m|[30;1mp[0m| |[30;1mp[0m|| 5
[32;1m[Board] [0m  -------------------
[32;1m[Board] [0m4 ||[0;1mp[0m| |[7;1m [0m| |[7;1m [0m|[0;1mk[0m|[0;1mp[0m| || 4
[32;1m[Board] [0m  -------------------
[32;1m[Board] [0m3 || |[7;1m [0m|[0;1mp[0m|[7;1m [0m| |[0;1mp[0m| |[7;1m [0m|| 3
[32;1m[Board] [0m  -------------------
[32;1m[Board] [0m2 ||[7;1m [0m|[0;1mp[0m|[0;1mQ[0m|[0;1mp[0m|[0;1mp[0m| |[7;1m [0m|[0;1mp[0m|| 2
[32;1m[Board] [0m  -------------------
[32;1m[Board] [0m1 ||[0;1mr[0m|[0;1mk[0m|[0;1mb[0m|[7;1m [0m|[0;1mK[0m|[0;1mb[0m| |[0;1mr[0m|| 1
[32;1m[Board] [0m  -------------------
[32;1m[Board] [0m    a b c d e f g h
[32;1m[Board] [0m
[32;1m[Referee] [0mThis is the turn of the White player...
Input file: championship/lizzie-iii-shallowcyan/history.csv
Output file: championship/lizzie-iii-shallowcyan/move.csv
Turn of: white
Succesful move
c2c3
8 | R N B Q K B N R 
7 | P P P P P P P P 
6 | _ _ _ _ _ _ _ _ 
5 | _ _ _ _ _ _ _ _ 
4 | _ _ _ _ _ _ _ _ 
3 | _ _ P _ _ _ _ _ 
2 | P P _ P P P P P 
1 | R N B Q K B N R 
-------------------
  | A B C D E F G H 

Turn of: black
Succesful move
b7b6
8 | R N B Q K B N R 
7 | P _ P P P P P P 
6 | _ P _ _ _ _ _ _ 
5 | _ _ _ _ _ _ _ _ 
4 | _ _ _ _ _ _ _ _ 
3 | _ _ P _ _ _ _ _ 
2 | P P _ P P P P P 
1 | R N B Q K B N R 
-------------------
  | A B C D E F G H 

Turn of: white
Succesful move
a2a4
8 | R N B Q K B N R 
7 | P _ P P P P P P 
6 | _ P _ _ _ _ _ _ 
5 | _ _ _ _ _ _ _ _ 
4 | P _ _ _ _ _ _ _ 
3 | _ _ P _ _ _ _ _ 
2 | _ P _ P P P P P 
1 | R N B Q K B N R 
-------------------
  | A B C D E F G H 

Turn of: black
Succesful move
h7h5
8 | R N B Q K B N R 
7 | P _ P P P P P _ 
6 | _ P _ _ _ _ _ _ 
5 | _ _ _ _ _ _ _ P 
4 | P _ _ _ _ _ _ _ 
3 | _ _ P _ _ _ _ _ 
2 | _ P _ P P P P P 
1 | R N B Q K B N R 
-------------------
  | A B C D E F G H 

Turn of: white
Succesful move
g1h3
8 | R N B Q K B N R 
7 | P _ P P P P P _ 
6 | _ P _ _ _ _ _ _ 
5 | _ _ _ _ _ _ _ P 
4 | P _ _ _ _ _ _ _ 
3 | _ _ P _ _ _ _ N 
2 | _ P _ P P P P P 
1 | R N B Q K B _ R 
-------------------
  | A B C D E F G H 

Turn of: black
Succesful move
h8h7
8 | R N B Q K B N _ 
7 | P _ P P P P P R 
6 | _ P _ _ _ _ _ _ 
5 | _ _ _ _ _ _ _ P 
4 | P _ _ _ _ _ _ _ 
3 | _ _ P _ _ _ _ N 
2 | _ P _ P P P P P 
1 | R N B Q K B _ R 
-------------------
  | A B C D E F G H 

Turn of: white
Succesful move
g2g4
8 | R N B Q K B N _ 
7 | P _ P P P P P R 
6 | _ P _ _ _ _ _ _ 
5 | _ _ _ _ _ _ _ P 
4 | P _ _ _ _ _ P _ 
3 | _ _ P _ _ _ _ N 
2 | _ P _ P P P _ P 
1 | R N B Q K B _ R 
-------------------
  | A B C D E F G H 

Turn of: black
Succesful move
c8a6
8 | R N _ Q K B N _ 
7 | P _ P P P P P R 
6 | B P _ _ _ _ _ _ 
5 | _ _ _ _ _ _ _ P 
4 | P _ _ _ _ _ P _ 
3 | _ _ P _ _ _ _ N 
2 | _ P _ P P P _ P 
1 | R N B Q K B _ R 
-------------------
  | A B C D E F G H 

Turn of: white
Succesful move
f2f3
8 | R N _ Q K B N _ 
7 | P _ P P P P P R 
6 | B P _ _ _ _ _ _ 
5 | _ _ _ _ _ _ _ P 
4 | P _ _ _ _ _ P _ 
3 | _ _ P _ _ P _ N 
2 | _ P _ P P _ _ P 
1 | R N B Q K B _ R 
-------------------
  | A B C D E F G H 

Turn of: black
Succesful move
f7f6
8 | R N _ Q K B N _ 
7 | P _ P P P _ P R 
6 | B P _ _ _ P _ _ 
5 | _ _ _ _ _ _ _ P 
4 | P _ _ _ _ _ P _ 
3 | _ _ P _ _ P _ N 
2 | _ P _ P P _ _ P 
1 | R N B Q K B _ R 
-------------------
  | A B C D E F G H 

Turn of: white
Succesful move
h3f4
8 | R N _ Q K B N _ 
7 | P _ P P P _ P R 
6 | B P _ _ _ P _ _ 
5 | _ _ _ _ _ _ _ P 
4 | P _ _ _ _ N P _ 
3 | _ _ P _ _ P _ _ 
2 | _ P _ P P _ _ P 
1 | R N B Q K B _ R 
-------------------
  | A B C D E F G H 

Turn of: black
Succesful move
e7e5
8 | R N _ Q K B N _ 
7 | P _ P P _ _ P R 
6 | B P _ _ _ P _ _ 
5 | _ _ _ _ P _ _ P 
4 | P _ _ _ _ N P _ 
3 | _ _ P _ _ P _ _ 
2 | _ P _ P P _ _ P 
1 | R N B Q K B _ R 
-------------------
  | A B C D E F G H 

Turn of: white
Succesful move
d1c2
8 | R N _ Q K B N _ 
7 | P _ P P _ _ P R 
6 | B P _ _ _ P _ _ 
5 | _ _ _ _ P _ _ P 
4 | P _ _ _ _ N P _ 
3 | _ _ P _ _ P _ _ 
2 | _ P Q P P _ _ P 
1 | R N B _ K B _ R 
-------------------
  | A B C D E F G H 

Turn of: black
Succesful move
f6f5
8 | R N _ Q K B N _ 
7 | P _ P P _ _ P R 
6 | B P _ _ _ _ _ _ 
5 | _ _ _ _ P P _ P 
4 | P _ _ _ _ N P _ 
3 | _ _ P _ _ P _ _ 
2 | _ P Q P P _ _ P 
1 | R N B _ K B _ R 
-------------------
  | A B C D E F G H 

We are playing as White
Move history:
c2c3
b7b6
a2a4
h7h5
g1h3
h8h7
g2g4
c8a6
f2f3
f7f6
h3f4
e7e5
d1c2
f6f5
8 | R N _ Q K B N _ 
7 | P _ P P _ _ P R 
6 | B P _ _ _ _ _ _ 
5 | _ _ _ _ P P _ P 
4 | P _ _ _ _ N P _ 
3 | _ _ P _ _ P _ _ 
2 | _ P Q P P _ _ P 
1 | R N B _ K B _ R 
-------------------
  | A B C D E F G H 

It is white's turn to play.
AI's move: f4g6
Move written: f4g6
[32;1m[Game] [0mPlayer's error code: 0
[32;1m[Game] [0mChecking move validity...
[32;1m[Board] [0mInitializing board...
[32;1m[Board] [0mLoading history file `championship/lizzie-iii-shallowcyan/history.csv`...
[32;1m[Board] [0mLoaded 14 move(s).
[32;1m[Board] [0mLoading move file `championship/lizzie-iii-shallowcyan/move.csv`...
[32;1m[Board] [0mWhite player is playing f4 to g6.
[32;1m[Board] [0m
[32;1m[Board] [0m    a b c d e f g h 
[32;1m[Board] [0m  -------------------
[32;1m[Board] [0m8 ||[30;1mr[0m|[30;1mk[0m|[7;1m [0m|[30;1mQ[0m|[30;1mK[0m|[30;1mb[0m|[30;1mk[0m| || 8
[32;1m[Board] [0m  -------------------
[32;1m[Board] [0m7 ||[30;1mp[0m|[7;1m [0m|[30;1mp[0m|[30;1mp[0m| |[7;1m [0m|[30;1mp[0m|[30;1mr[0m|| 7
[32;1m[Board] [0m  -------------------
[32;1m[Board] [0m6 ||[30;1mb[0m|[30;1mp[0m|[7;1m [0m| |[7;1m [0m| |[0;1mk[0m| || 6
[32;1m[Board] [0m  -------------------
[32;1m[Board] [0m5 || |[7;1m [0m| |[7;1m [0m|[30;1mp[0m|[30;1mp[0m| |[30;1mp[0m|| 5
[32;1m[Board] [0m  -------------------
[32;1m[Board] [0m4 ||[0;1mp[0m| |[7;1m [0m| |[7;1m [0m| |[0;1mp[0m| || 4
[32;1m[Board] [0m  -------------------
[32;1m[Board] [0m3 || |[7;1m [0m|[0;1mp[0m|[7;1m [0m| |[0;1mp[0m| |[7;1m [0m|| 3
[32;1m[Board] [0m  -------------------
[32;1m[Board] [0m2 ||[7;1m [0m|[0;1mp[0m|[0;1mQ[0m|[0;1mp[0m|[0;1mp[0m| |[7;1m [0m|[0;1mp[0m|| 2
[32;1m[Board] [0m  -------------------
[32;1m[Board] [0m1 ||[0;1mr[0m|[0;1mk[0m|[0;1mb[0m|[7;1m [0m|[0;1mK[0m|[0;1mb[0m| |[0;1mr[0m|| 1
[32;1m[Board] [0m  -------------------
[32;1m[Board] [0m    a b c d e f g h
[32;1m[Board] [0m
[32;1m[Referee] [0mThis is the turn of the Black player...
8 [100m ♖ [43m ♘ [100m   [43m ♕ [100m ♔ [43m ♗ [100m ♘ [43m   [40m
7 [43m ♙ [100m   [43m ♙ [100m ♙ [43m   [100m   [43m ♙ [100m ♖ [40m
6 [100m ♗ [43m ♙ [100m   [43m   [100m   [43m   [100m ♞ [43m   [40m
5 [43m   [100m   [43m   [100m   [43m ♙ [100m ♙ [43m   [100m ♙ [40m
4 [100m ♟ [43m   [100m   [43m   [100m   [43m   [100m ♟ [43m   [40m
3 [43m   [100m   [43m ♟ [100m   [43m   [100m ♟ [43m   [100m   [40m
2 [100m   [43m ♟ [100m ♛ [43m ♟ [100m ♟ [43m   [100m   [43m ♟ [40m
1 [43m ♜ [100m ♞ [43m ♝ [100m   [43m ♚ [100m ♝ [43m   [100m ♜ [40m
   a  b  c  d  e  f  g  h  
[32;1m[Game] [0mPlayer's error code: 0
[32;1m[Game] [0mChecking move validity...
[32;1m[Board] [0mInitializing board...
[32;1m[Board] [0mLoading history file `championship/lizzie-iii-shallowcyan/history.csv`...
[32;1m[Board] [0mLoaded 15 move(s).
[32;1m[Board] [0mLoading move file `championship/lizzie-iii-shallowcyan/move.csv`...
[32;1m[Board] [0mBlack player is playing f5 to g4.
[32;1m[Board] [0m[5;1mBlack Pawn is taking White Pawn.[0m
[32;1m[Board] [0m
[32;1m[Board] [0m    a b c d e f g h 
[32;1m[Board] [0m  -------------------
[32;1m[Board] [0m8 ||[30;1mr[0m|[30;1mk[0m|[7;1m [0m|[30;1mQ[0m|[30;1mK[0m|[30;1mb[0m|[30;1mk[0m| || 8
[32;1m[Board] [0m  -------------------
[32;1m[Board] [0m7 ||[30;1mp[0m|[7;1m [0m|[30;1mp[0m|[30;1mp[0m| |[7;1m [0m|[30;1mp[0m|[30;1mr[0m|| 7
[32;1m[Board] [0m  -------------------
[32;1m[Board] [0m6 ||[30;1mb[0m|[30;1mp[0m|[7;1m [0m| |[7;1m [0m| |[0;1mk[0m| || 6
[32;1m[Board] [0m  -------------------
[32;1m[Board] [0m5 || |[7;1m [0m| |[7;1m [0m|[30;1mp[0m|[7;1m [0m| |[30;1mp[0m|| 5
[32;1m[Board] [0m  -------------------
[32;1m[Board] [0m4 ||[0;1mp[0m| |[7;1m [0m| |[7;1m [0m| |[30;1mp[0m| || 4
[32;1m[Board] [0m  -------------------
[32;1m[Board] [0m3 || |[7;1m [0m|[0;1mp[0m|[7;1m [0m| |[0;1mp[0m| |[7;1m [0m|| 3
[32;1m[Board] [0m  -------------------
[32;1m[Board] [0m2 ||[7;1m [0m|[0;1mp[0m|[0;1mQ[0m|[0;1mp[0m|[0;1mp[0m| |[7;1m [0m|[0;1mp[0m|| 2
[32;1m[Board] [0m  -------------------
[32;1m[Board] [0m1 ||[0;1mr[0m|[0;1mk[0m|[0;1mb[0m|[7;1m [0m|[0;1mK[0m|[0;1mb[0m| |[0;1mr[0m|| 1
[32;1m[Board] [0m  -------------------
[32;1m[Board] [0m    a b c d e f g h
[32;1m[Board] [0m
[32;1m[Referee] [0mThis is the turn of the White player...
Input file: championship/lizzie-iii-shallowcyan/history.csv
Output file: championship/lizzie-iii-shallowcyan/move.csv
Turn of: white
Succesful move
c2c3
8 | R N B Q K B N R 
7 | P P P P P P P P 
6 | _ _ _ _ _ _ _ _ 
5 | _ _ _ _ _ _ _ _ 
4 | _ _ _ _ _ _ _ _ 
3 | _ _ P _ _ _ _ _ 
2 | P P _ P P P P P 
1 | R N B Q K B N R 
-------------------
  | A B C D E F G H 

Turn of: black
Succesful move
b7b6
8 | R N B Q K B N R 
7 | P _ P P P P P P 
6 | _ P _ _ _ _ _ _ 
5 | _ _ _ _ _ _ _ _ 
4 | _ _ _ _ _ _ _ _ 
3 | _ _ P _ _ _ _ _ 
2 | P P _ P P P P P 
1 | R N B Q K B N R 
-------------------
  | A B C D E F G H 

Turn of: white
Succesful move
a2a4
8 | R N B Q K B N R 
7 | P _ P P P P P P 
6 | _ P _ _ _ _ _ _ 
5 | _ _ _ _ _ _ _ _ 
4 | P _ _ _ _ _ _ _ 
3 | _ _ P _ _ _ _ _ 
2 | _ P _ P P P P P 
1 | R N B Q K B N R 
-------------------
  | A B C D E F G H 

Turn of: black
Succesful move
h7h5
8 | R N B Q K B N R 
7 | P _ P P P P P _ 
6 | _ P _ _ _ _ _ _ 
5 | _ _ _ _ _ _ _ P 
4 | P _ _ _ _ _ _ _ 
3 | _ _ P _ _ _ _ _ 
2 | _ P _ P P P P P 
1 | R N B Q K B N R 
-------------------
  | A B C D E F G H 

Turn of: white
Succesful move
g1h3
8 | R N B Q K B N R 
7 | P _ P P P P P _ 
6 | _ P _ _ _ _ _ _ 
5 | _ _ _ _ _ _ _ P 
4 | P _ _ _ _ _ _ _ 
3 | _ _ P _ _ _ _ N 
2 | _ P _ P P P P P 
1 | R N B Q K B _ R 
-------------------
  | A B C D E F G H 

Turn of: black
Succesful move
h8h7
8 | R N B Q K B N _ 
7 | P _ P P P P P R 
6 | _ P _ _ _ _ _ _ 
5 | _ _ _ _ _ _ _ P 
4 | P _ _ _ _ _ _ _ 
3 | _ _ P _ _ _ _ N 
2 | _ P _ P P P P P 
1 | R N B Q K B _ R 
-------------------
  | A B C D E F G H 

Turn of: white
Succesful move
g2g4
8 | R N B Q K B N _ 
7 | P _ P P P P P R 
6 | _ P _ _ _ _ _ _ 
5 | _ _ _ _ _ _ _ P 
4 | P _ _ _ _ _ P _ 
3 | _ _ P _ _ _ _ N 
2 | _ P _ P P P _ P 
1 | R N B Q K B _ R 
-------------------
  | A B C D E F G H 

Turn of: black
Succesful move
c8a6
8 | R N _ Q K B N _ 
7 | P _ P P P P P R 
6 | B P _ _ _ _ _ _ 
5 | _ _ _ _ _ _ _ P 
4 | P _ _ _ _ _ P _ 
3 | _ _ P _ _ _ _ N 
2 | _ P _ P P P _ P 
1 | R N B Q K B _ R 
-------------------
  | A B C D E F G H 

Turn of: white
Succesful move
f2f3
8 | R N _ Q K B N _ 
7 | P _ P P P P P R 
6 | B P _ _ _ _ _ _ 
5 | _ _ _ _ _ _ _ P 
4 | P _ _ _ _ _ P _ 
3 | _ _ P _ _ P _ N 
2 | _ P _ P P _ _ P 
1 | R N B Q K B _ R 
-------------------
  | A B C D E F G H 

Turn of: black
Succesful move
f7f6
8 | R N _ Q K B N _ 
7 | P _ P P P _ P R 
6 | B P _ _ _ P _ _ 
5 | _ _ _ _ _ _ _ P 
4 | P _ _ _ _ _ P _ 
3 | _ _ P _ _ P _ N 
2 | _ P _ P P _ _ P 
1 | R N B Q K B _ R 
-------------------
  | A B C D E F G H 

Turn of: white
Succesful move
h3f4
8 | R N _ Q K B N _ 
7 | P _ P P P _ P R 
6 | B P _ _ _ P _ _ 
5 | _ _ _ _ _ _ _ P 
4 | P _ _ _ _ N P _ 
3 | _ _ P _ _ P _ _ 
2 | _ P _ P P _ _ P 
1 | R N B Q K B _ R 
-------------------
  | A B C D E F G H 

Turn of: black
Succesful move
e7e5
8 | R N _ Q K B N _ 
7 | P _ P P _ _ P R 
6 | B P _ _ _ P _ _ 
5 | _ _ _ _ P _ _ P 
4 | P _ _ _ _ N P _ 
3 | _ _ P _ _ P _ _ 
2 | _ P _ P P _ _ P 
1 | R N B Q K B _ R 
-------------------
  | A B C D E F G H 

Turn of: white
Succesful move
d1c2
8 | R N _ Q K B N _ 
7 | P _ P P _ _ P R 
6 | B P _ _ _ P _ _ 
5 | _ _ _ _ P _ _ P 
4 | P _ _ _ _ N P _ 
3 | _ _ P _ _ P _ _ 
2 | _ P Q P P _ _ P 
1 | R N B _ K B _ R 
-------------------
  | A B C D E F G H 

Turn of: black
Succesful move
f6f5
8 | R N _ Q K B N _ 
7 | P _ P P _ _ P R 
6 | B P _ _ _ _ _ _ 
5 | _ _ _ _ P P _ P 
4 | P _ _ _ _ N P _ 
3 | _ _ P _ _ P _ _ 
2 | _ P Q P P _ _ P 
1 | R N B _ K B _ R 
-------------------
  | A B C D E F G H 

Turn of: white
Succesful move
f4g6
8 | R N _ Q K B N _ 
7 | P _ P P _ _ P R 
6 | B P _ _ _ _ N _ 
5 | _ _ _ _ P P _ P 
4 | P _ _ _ _ _ P _ 
3 | _ _ P _ _ P _ _ 
2 | _ P Q P P _ _ P 
1 | R N B _ K B _ R 
-------------------
  | A B C D E F G H 

Turn of: black
Succesful move
f5g4
8 | R N _ Q K B N _ 
7 | P _ P P _ _ P R 
6 | B P _ _ _ _ N _ 
5 | _ _ _ _ P _ _ P 
4 | P _ _ _ _ _ P _ 
3 | _ _ P _ _ P _ _ 
2 | _ P Q P P _ _ P 
1 | R N B _ K B _ R 
-------------------
  | A B C D E F G H 

We are playing as White
Move history:
c2c3
b7b6
a2a4
h7h5
g1h3
h8h7
g2g4
c8a6
f2f3
f7f6
h3f4
e7e5
d1c2
f6f5
f4g6
f5g4
8 | R N _ Q K B N _ 
7 | P _ P P _ _ P R 
6 | B P _ _ _ _ N _ 
5 | _ _ _ _ P _ _ P 
4 | P _ _ _ _ _ P _ 
3 | _ _ P _ _ P _ _ 
2 | _ P Q P P _ _ P 
1 | R N B _ K B _ R 
-------------------
  | A B C D E F G H 

It is white's turn to play.
AI's move: c2f5
Move written: c2f5
[32;1m[Game] [0mPlayer's error code: 0
[32;1m[Game] [0mChecking move validity...
[32;1m[Board] [0mInitializing board...
[32;1m[Board] [0mLoading history file `championship/lizzie-iii-shallowcyan/history.csv`...
[32;1m[Board] [0mLoaded 16 move(s).
[32;1m[Board] [0mLoading move file `championship/lizzie-iii-shallowcyan/move.csv`...
[32;1m[Board] [0mWhite player is playing c2 to f5.
[32;1m[Board] [0m
[32;1m[Board] [0m    a b c d e f g h 
[32;1m[Board] [0m  -------------------
[32;1m[Board] [0m8 ||[30;1mr[0m|[30;1mk[0m|[7;1m [0m|[30;1mQ[0m|[30;1mK[0m|[30;1mb[0m|[30;1mk[0m| || 8
[32;1m[Board] [0m  -------------------
[32;1m[Board] [0m7 ||[30;1mp[0m|[7;1m [0m|[30;1mp[0m|[30;1mp[0m| |[7;1m [0m|[30;1mp[0m|[30;1mr[0m|| 7
[32;1m[Board] [0m  -------------------
[32;1m[Board] [0m6 ||[30;1mb[0m|[30;1mp[0m|[7;1m [0m| |[7;1m [0m| |[0;1mk[0m| || 6
[32;1m[Board] [0m  -------------------
[32;1m[Board] [0m5 || |[7;1m [0m| |[7;1m [0m|[30;1mp[0m|[0;1mQ[0m| |[30;1mp[0m|| 5
[32;1m[Board] [0m  -------------------
[32;1m[Board] [0m4 ||[0;1mp[0m| |[7;1m [0m| |[7;1m [0m| |[30;1mp[0m| || 4
[32;1m[Board] [0m  -------------------
[32;1m[Board] [0m3 || |[7;1m [0m|[0;1mp[0m|[7;1m [0m| |[0;1mp[0m| |[7;1m [0m|| 3
[32;1m[Board] [0m  -------------------
[32;1m[Board] [0m2 ||[7;1m [0m|[0;1mp[0m|[7;1m [0m|[0;1mp[0m|[0;1mp[0m| |[7;1m [0m|[0;1mp[0m|| 2
[32;1m[Board] [0m  -------------------
[32;1m[Board] [0m1 ||[0;1mr[0m|[0;1mk[0m|[0;1mb[0m|[7;1m [0m|[0;1mK[0m|[0;1mb[0m| |[0;1mr[0m|| 1
[32;1m[Board] [0m  -------------------
[32;1m[Board] [0m    a b c d e f g h
[32;1m[Board] [0m
[32;1m[Referee] [0mThis is the turn of the Black player...
8 [100m ♖ [43m ♘ [100m   [43m ♕ [100m ♔ [43m ♗ [100m ♘ [43m   [40m
7 [43m ♙ [100m   [43m ♙ [100m ♙ [43m   [100m   [43m ♙ [100m ♖ [40m
6 [100m ♗ [43m ♙ [100m   [43m   [100m   [43m   [100m ♞ [43m   [40m
5 [43m   [100m   [43m   [100m   [43m ♙ [100m ♛ [43m   [100m ♙ [40m
4 [100m ♟ [43m   [100m   [43m   [100m   [43m   [100m ♙ [43m   [40m
3 [43m   [100m   [43m ♟ [100m   [43m   [100m ♟ [43m   [100m   [40m
2 [100m   [43m ♟ [100m   [43m ♟ [100m ♟ [43m   [100m   [43m ♟ [40m
1 [43m ♜ [100m ♞ [43m ♝ [100m   [43m ♚ [100m ♝ [43m   [100m ♜ [40m
   a  b  c  d  e  f  g  h  
[32;1m[Game] [0mPlayer's error code: 0
[32;1m[Game] [0mChecking move validity...
[32;1m[Board] [0mInitializing board...
[32;1m[Board] [0mLoading history file `championship/lizzie-iii-shallowcyan/history.csv`...
[32;1m[Board] [0mLoaded 17 move(s).
[32;1m[Board] [0mLoading move file `championship/lizzie-iii-shallowcyan/move.csv`...
[32;1m[Board] [0mBlack player is playing f8 to d6.
[32;1m[Board] [0m
[32;1m[Board] [0m    a b c d e f g h 
[32;1m[Board] [0m  -------------------
[32;1m[Board] [0m8 ||[30;1mr[0m|[30;1mk[0m|[7;1m [0m|[30;1mQ[0m|[30;1mK[0m| |[30;1mk[0m| || 8
[32;1m[Board] [0m  -------------------
[32;1m[Board] [0m7 ||[30;1mp[0m|[7;1m [0m|[30;1mp[0m|[30;1mp[0m| |[7;1m [0m|[30;1mp[0m|[30;1mr[0m|| 7
[32;1m[Board] [0m  -------------------
[32;1m[Board] [0m6 ||[30;1mb[0m|[30;1mp[0m|[7;1m [0m|[30;1mb[0m|[7;1m [0m| |[0;1mk[0m| || 6
[32;1m[Board] [0m  -------------------
[32;1m[Board] [0m5 || |[7;1m [0m| |[7;1m [0m|[30;1mp[0m|[0;1mQ[0m| |[30;1mp[0m|| 5
[32;1m[Board] [0m  -------------------
[32;1m[Board] [0m4 ||[0;1mp[0m| |[7;1m [0m| |[7;1m [0m| |[30;1mp[0m| || 4
[32;1m[Board] [0m  -------------------
[32;1m[Board] [0m3 || |[7;1m [0m|[0;1mp[0m|[7;1m [0m| |[0;1mp[0m| |[7;1m [0m|| 3
[32;1m[Board] [0m  -------------------
[32;1m[Board] [0m2 ||[7;1m [0m|[0;1mp[0m|[7;1m [0m|[0;1mp[0m|[0;1mp[0m| |[7;1m [0m|[0;1mp[0m|| 2
[32;1m[Board] [0m  -------------------
[32;1m[Board] [0m1 ||[0;1mr[0m|[0;1mk[0m|[0;1mb[0m|[7;1m [0m|[0;1mK[0m|[0;1mb[0m| |[0;1mr[0m|| 1
[32;1m[Board] [0m  -------------------
[32;1m[Board] [0m    a b c d e f g h
[32;1m[Board] [0m
[32;1m[Referee] [0mThis is the turn of the White player...
Input file: championship/lizzie-iii-shallowcyan/history.csv
Output file: championship/lizzie-iii-shallowcyan/move.csv
Turn of: white
Succesful move
c2c3
8 | R N B Q K B N R 
7 | P P P P P P P P 
6 | _ _ _ _ _ _ _ _ 
5 | _ _ _ _ _ _ _ _ 
4 | _ _ _ _ _ _ _ _ 
3 | _ _ P _ _ _ _ _ 
2 | P P _ P P P P P 
1 | R N B Q K B N R 
-------------------
  | A B C D E F G H 

Turn of: black
Succesful move
b7b6
8 | R N B Q K B N R 
7 | P _ P P P P P P 
6 | _ P _ _ _ _ _ _ 
5 | _ _ _ _ _ _ _ _ 
4 | _ _ _ _ _ _ _ _ 
3 | _ _ P _ _ _ _ _ 
2 | P P _ P P P P P 
1 | R N B Q K B N R 
-------------------
  | A B C D E F G H 

Turn of: white
Succesful move
a2a4
8 | R N B Q K B N R 
7 | P _ P P P P P P 
6 | _ P _ _ _ _ _ _ 
5 | _ _ _ _ _ _ _ _ 
4 | P _ _ _ _ _ _ _ 
3 | _ _ P _ _ _ _ _ 
2 | _ P _ P P P P P 
1 | R N B Q K B N R 
-------------------
  | A B C D E F G H 

Turn of: black
Succesful move
h7h5
8 | R N B Q K B N R 
7 | P _ P P P P P _ 
6 | _ P _ _ _ _ _ _ 
5 | _ _ _ _ _ _ _ P 
4 | P _ _ _ _ _ _ _ 
3 | _ _ P _ _ _ _ _ 
2 | _ P _ P P P P P 
1 | R N B Q K B N R 
-------------------
  | A B C D E F G H 

Turn of: white
Succesful move
g1h3
8 | R N B Q K B N R 
7 | P _ P P P P P _ 
6 | _ P _ _ _ _ _ _ 
5 | _ _ _ _ _ _ _ P 
4 | P _ _ _ _ _ _ _ 
3 | _ _ P _ _ _ _ N 
2 | _ P _ P P P P P 
1 | R N B Q K B _ R 
-------------------
  | A B C D E F G H 

Turn of: black
Succesful move
h8h7
8 | R N B Q K B N _ 
7 | P _ P P P P P R 
6 | _ P _ _ _ _ _ _ 
5 | _ _ _ _ _ _ _ P 
4 | P _ _ _ _ _ _ _ 
3 | _ _ P _ _ _ _ N 
2 | _ P _ P P P P P 
1 | R N B Q K B _ R 
-------------------
  | A B C D E F G H 

Turn of: white
Succesful move
g2g4
8 | R N B Q K B N _ 
7 | P _ P P P P P R 
6 | _ P _ _ _ _ _ _ 
5 | _ _ _ _ _ _ _ P 
4 | P _ _ _ _ _ P _ 
3 | _ _ P _ _ _ _ N 
2 | _ P _ P P P _ P 
1 | R N B Q K B _ R 
-------------------
  | A B C D E F G H 

Turn of: black
Succesful move
c8a6
8 | R N _ Q K B N _ 
7 | P _ P P P P P R 
6 | B P _ _ _ _ _ _ 
5 | _ _ _ _ _ _ _ P 
4 | P _ _ _ _ _ P _ 
3 | _ _ P _ _ _ _ N 
2 | _ P _ P P P _ P 
1 | R N B Q K B _ R 
-------------------
  | A B C D E F G H 

Turn of: white
Succesful move
f2f3
8 | R N _ Q K B N _ 
7 | P _ P P P P P R 
6 | B P _ _ _ _ _ _ 
5 | _ _ _ _ _ _ _ P 
4 | P _ _ _ _ _ P _ 
3 | _ _ P _ _ P _ N 
2 | _ P _ P P _ _ P 
1 | R N B Q K B _ R 
-------------------
  | A B C D E F G H 

Turn of: black
Succesful move
f7f6
8 | R N _ Q K B N _ 
7 | P _ P P P _ P R 
6 | B P _ _ _ P _ _ 
5 | _ _ _ _ _ _ _ P 
4 | P _ _ _ _ _ P _ 
3 | _ _ P _ _ P _ N 
2 | _ P _ P P _ _ P 
1 | R N B Q K B _ R 
-------------------
  | A B C D E F G H 

Turn of: white
Succesful move
h3f4
8 | R N _ Q K B N _ 
7 | P _ P P P _ P R 
6 | B P _ _ _ P _ _ 
5 | _ _ _ _ _ _ _ P 
4 | P _ _ _ _ N P _ 
3 | _ _ P _ _ P _ _ 
2 | _ P _ P P _ _ P 
1 | R N B Q K B _ R 
-------------------
  | A B C D E F G H 

Turn of: black
Succesful move
e7e5
8 | R N _ Q K B N _ 
7 | P _ P P _ _ P R 
6 | B P _ _ _ P _ _ 
5 | _ _ _ _ P _ _ P 
4 | P _ _ _ _ N P _ 
3 | _ _ P _ _ P _ _ 
2 | _ P _ P P _ _ P 
1 | R N B Q K B _ R 
-------------------
  | A B C D E F G H 

Turn of: white
Succesful move
d1c2
8 | R N _ Q K B N _ 
7 | P _ P P _ _ P R 
6 | B P _ _ _ P _ _ 
5 | _ _ _ _ P _ _ P 
4 | P _ _ _ _ N P _ 
3 | _ _ P _ _ P _ _ 
2 | _ P Q P P _ _ P 
1 | R N B _ K B _ R 
-------------------
  | A B C D E F G H 

Turn of: black
Succesful move
f6f5
8 | R N _ Q K B N _ 
7 | P _ P P _ _ P R 
6 | B P _ _ _ _ _ _ 
5 | _ _ _ _ P P _ P 
4 | P _ _ _ _ N P _ 
3 | _ _ P _ _ P _ _ 
2 | _ P Q P P _ _ P 
1 | R N B _ K B _ R 
-------------------
  | A B C D E F G H 

Turn of: white
Succesful move
f4g6
8 | R N _ Q K B N _ 
7 | P _ P P _ _ P R 
6 | B P _ _ _ _ N _ 
5 | _ _ _ _ P P _ P 
4 | P _ _ _ _ _ P _ 
3 | _ _ P _ _ P _ _ 
2 | _ P Q P P _ _ P 
1 | R N B _ K B _ R 
-------------------
  | A B C D E F G H 

Turn of: black
Succesful move
f5g4
8 | R N _ Q K B N _ 
7 | P _ P P _ _ P R 
6 | B P _ _ _ _ N _ 
5 | _ _ _ _ P _ _ P 
4 | P _ _ _ _ _ P _ 
3 | _ _ P _ _ P _ _ 
2 | _ P Q P P _ _ P 
1 | R N B _ K B _ R 
-------------------
  | A B C D E F G H 

Turn of: white
Succesful move
c2f5
8 | R N _ Q K B N _ 
7 | P _ P P _ _ P R 
6 | B P _ _ _ _ N _ 
5 | _ _ _ _ P Q _ P 
4 | P _ _ _ _ _ P _ 
3 | _ _ P _ _ P _ _ 
2 | _ P _ P P _ _ P 
1 | R N B _ K B _ R 
-------------------
  | A B C D E F G H 

Turn of: black
Succesful move
f8d6
8 | R N _ Q K _ N _ 
7 | P _ P P _ _ P R 
6 | B P _ B _ _ N _ 
5 | _ _ _ _ P Q _ P 
4 | P _ _ _ _ _ P _ 
3 | _ _ P _ _ P _ _ 
2 | _ P _ P P _ _ P 
1 | R N B _ K B _ R 
-------------------
  | A B C D E F G H 

We are playing as White
Move history:
c2c3
b7b6
a2a4
h7h5
g1h3
h8h7
g2g4
c8a6
f2f3
f7f6
h3f4
e7e5
d1c2
f6f5
f4g6
f5g4
c2f5
f8d6
8 | R N _ Q K _ N _ 
7 | P _ P P _ _ P R 
6 | B P _ B _ _ N _ 
5 | _ _ _ _ P Q _ P 
4 | P _ _ _ _ _ P _ 
3 | _ _ P _ _ P _ _ 
2 | _ P _ P P _ _ P 
1 | R N B _ K B _ R 
-------------------
  | A B C D E F G H 

It is white's turn to play.
AI's move: f3f4
Move written: f3f4
[32;1m[Game] [0mPlayer's error code: 0
[32;1m[Game] [0mChecking move validity...
[32;1m[Board] [0mInitializing board...
[32;1m[Board] [0mLoading history file `championship/lizzie-iii-shallowcyan/history.csv`...
[32;1m[Board] [0mLoaded 18 move(s).
[32;1m[Board] [0mLoading move file `championship/lizzie-iii-shallowcyan/move.csv`...
[32;1m[Board] [0mWhite player is playing f3 to f4.
[32;1m[Board] [0m
[32;1m[Board] [0m    a b c d e f g h 
[32;1m[Board] [0m  -------------------
[32;1m[Board] [0m8 ||[30;1mr[0m|[30;1mk[0m|[7;1m [0m|[30;1mQ[0m|[30;1mK[0m| |[30;1mk[0m| || 8
[32;1m[Board] [0m  -------------------
[32;1m[Board] [0m7 ||[30;1mp[0m|[7;1m [0m|[30;1mp[0m|[30;1mp[0m| |[7;1m [0m|[30;1mp[0m|[30;1mr[0m|| 7
[32;1m[Board] [0m  -------------------
[32;1m[Board] [0m6 ||[30;1mb[0m|[30;1mp[0m|[7;1m [0m|[30;1mb[0m|[7;1m [0m| |[0;1mk[0m| || 6
[32;1m[Board] [0m  -------------------
[32;1m[Board] [0m5 || |[7;1m [0m| |[7;1m [0m|[30;1mp[0m|[0;1mQ[0m| |[30;1mp[0m|| 5
[32;1m[Board] [0m  -------------------
[32;1m[Board] [0m4 ||[0;1mp[0m| |[7;1m [0m| |[7;1m [0m|[0;1mp[0m|[30;1mp[0m| || 4
[32;1m[Board] [0m  -------------------
[32;1m[Board] [0m3 || |[7;1m [0m|[0;1mp[0m|[7;1m [0m| |[7;1m [0m| |[7;1m [0m|| 3
[32;1m[Board] [0m  -------------------
[32;1m[Board] [0m2 ||[7;1m [0m|[0;1mp[0m|[7;1m [0m|[0;1mp[0m|[0;1mp[0m| |[7;1m [0m|[0;1mp[0m|| 2
[32;1m[Board] [0m  -------------------
[32;1m[Board] [0m1 ||[0;1mr[0m|[0;1mk[0m|[0;1mb[0m|[7;1m [0m|[0;1mK[0m|[0;1mb[0m| |[0;1mr[0m|| 1
[32;1m[Board] [0m  -------------------
[32;1m[Board] [0m    a b c d e f g h
[32;1m[Board] [0m
[32;1m[Referee] [0mThis is the turn of the Black player...
8 [100m ♖ [43m ♘ [100m   [43m ♕ [100m ♔ [43m   [100m ♘ [43m   [40m
7 [43m ♙ [100m   [43m ♙ [100m ♙ [43m   [100m   [43m ♙ [100m ♖ [40m
6 [100m ♗ [43m ♙ [100m   [43m ♗ [100m   [43m   [100m ♞ [43m   [40m
5 [43m   [100m   [43m   [100m   [43m ♙ [100m ♛ [43m   [100m ♙ [40m
4 [100m ♟ [43m   [100m   [43m   [100m   [43m ♟ [100m ♙ [43m   [40m
3 [43m   [100m   [43m ♟ [100m   [43m   [100m   [43m   [100m   [40m
2 [100m   [43m ♟ [100m   [43m ♟ [100m ♟ [43m   [100m   [43m ♟ [40m
1 [43m ♜ [100m ♞ [43m ♝ [100m   [43m ♚ [100m ♝ [43m   [100m ♜ [40m
   a  b  c  d  e  f  g  h  
[32;1m[Game] [0mPlayer's error code: 0
[32;1m[Game] [0mChecking move validity...
[32;1m[Board] [0mInitializing board...
[32;1m[Board] [0mLoading history file `championship/lizzie-iii-shallowcyan/history.csv`...
[32;1m[Board] [0mLoaded 19 move(s).
[32;1m[Board] [0mLoading move file `championship/lizzie-iii-shallowcyan/move.csv`...
[32;1m[Board] [0mBlack player is playing a6 to b7.
[32;1m[Board] [0m
[32;1m[Board] [0m    a b c d e f g h 
[32;1m[Board] [0m  -------------------
[32;1m[Board] [0m8 ||[30;1mr[0m|[30;1mk[0m|[7;1m [0m|[30;1mQ[0m|[30;1mK[0m| |[30;1mk[0m| || 8
[32;1m[Board] [0m  -------------------
[32;1m[Board] [0m7 ||[30;1mp[0m|[30;1mb[0m|[30;1mp[0m|[30;1mp[0m| |[7;1m [0m|[30;1mp[0m|[30;1mr[0m|| 7
[32;1m[Board] [0m  -------------------
[32;1m[Board] [0m6 ||[7;1m [0m|[30;1mp[0m|[7;1m [0m|[30;1mb[0m|[7;1m [0m| |[0;1mk[0m| || 6
[32;1m[Board] [0m  -------------------
[32;1m[Board] [0m5 || |[7;1m [0m| |[7;1m [0m|[30;1mp[0m|[0;1mQ[0m| |[30;1mp[0m|| 5
[32;1m[Board] [0m  -------------------
[32;1m[Board] [0m4 ||[0;1mp[0m| |[7;1m [0m| |[7;1m [0m|[0;1mp[0m|[30;1mp[0m| || 4
[32;1m[Board] [0m  -------------------
[32;1m[Board] [0m3 || |[7;1m [0m|[0;1mp[0m|[7;1m [0m| |[7;1m [0m| |[7;1m [0m|| 3
[32;1m[Board] [0m  -------------------
[32;1m[Board] [0m2 ||[7;1m [0m|[0;1mp[0m|[7;1m [0m|[0;1mp[0m|[0;1mp[0m| |[7;1m [0m|[0;1mp[0m|| 2
[32;1m[Board] [0m  -------------------
[32;1m[Board] [0m1 ||[0;1mr[0m|[0;1mk[0m|[0;1mb[0m|[7;1m [0m|[0;1mK[0m|[0;1mb[0m| |[0;1mr[0m|| 1
[32;1m[Board] [0m  -------------------
[32;1m[Board] [0m    a b c d e f g h
[32;1m[Board] [0m
[32;1m[Referee] [0mThis is the turn of the White player...
Input file: championship/lizzie-iii-shallowcyan/history.csv
Output file: championship/lizzie-iii-shallowcyan/move.csv
Turn of: white
Succesful move
c2c3
8 | R N B Q K B N R 
7 | P P P P P P P P 
6 | _ _ _ _ _ _ _ _ 
5 | _ _ _ _ _ _ _ _ 
4 | _ _ _ _ _ _ _ _ 
3 | _ _ P _ _ _ _ _ 
2 | P P _ P P P P P 
1 | R N B Q K B N R 
-------------------
  | A B C D E F G H 

Turn of: black
Succesful move
b7b6
8 | R N B Q K B N R 
7 | P _ P P P P P P 
6 | _ P _ _ _ _ _ _ 
5 | _ _ _ _ _ _ _ _ 
4 | _ _ _ _ _ _ _ _ 
3 | _ _ P _ _ _ _ _ 
2 | P P _ P P P P P 
1 | R N B Q K B N R 
-------------------
  | A B C D E F G H 

Turn of: white
Succesful move
a2a4
8 | R N B Q K B N R 
7 | P _ P P P P P P 
6 | _ P _ _ _ _ _ _ 
5 | _ _ _ _ _ _ _ _ 
4 | P _ _ _ _ _ _ _ 
3 | _ _ P _ _ _ _ _ 
2 | _ P _ P P P P P 
1 | R N B Q K B N R 
-------------------
  | A B C D E F G H 

Turn of: black
Succesful move
h7h5
8 | R N B Q K B N R 
7 | P _ P P P P P _ 
6 | _ P _ _ _ _ _ _ 
5 | _ _ _ _ _ _ _ P 
4 | P _ _ _ _ _ _ _ 
3 | _ _ P _ _ _ _ _ 
2 | _ P _ P P P P P 
1 | R N B Q K B N R 
-------------------
  | A B C D E F G H 

Turn of: white
Succesful move
g1h3
8 | R N B Q K B N R 
7 | P _ P P P P P _ 
6 | _ P _ _ _ _ _ _ 
5 | _ _ _ _ _ _ _ P 
4 | P _ _ _ _ _ _ _ 
3 | _ _ P _ _ _ _ N 
2 | _ P _ P P P P P 
1 | R N B Q K B _ R 
-------------------
  | A B C D E F G H 

Turn of: black
Succesful move
h8h7
8 | R N B Q K B N _ 
7 | P _ P P P P P R 
6 | _ P _ _ _ _ _ _ 
5 | _ _ _ _ _ _ _ P 
4 | P _ _ _ _ _ _ _ 
3 | _ _ P _ _ _ _ N 
2 | _ P _ P P P P P 
1 | R N B Q K B _ R 
-------------------
  | A B C D E F G H 

Turn of: white
Succesful move
g2g4
8 | R N B Q K B N _ 
7 | P _ P P P P P R 
6 | _ P _ _ _ _ _ _ 
5 | _ _ _ _ _ _ _ P 
4 | P _ _ _ _ _ P _ 
3 | _ _ P _ _ _ _ N 
2 | _ P _ P P P _ P 
1 | R N B Q K B _ R 
-------------------
  | A B C D E F G H 

Turn of: black
Succesful move
c8a6
8 | R N _ Q K B N _ 
7 | P _ P P P P P R 
6 | B P _ _ _ _ _ _ 
5 | _ _ _ _ _ _ _ P 
4 | P _ _ _ _ _ P _ 
3 | _ _ P _ _ _ _ N 
2 | _ P _ P P P _ P 
1 | R N B Q K B _ R 
-------------------
  | A B C D E F G H 

Turn of: white
Succesful move
f2f3
8 | R N _ Q K B N _ 
7 | P _ P P P P P R 
6 | B P _ _ _ _ _ _ 
5 | _ _ _ _ _ _ _ P 
4 | P _ _ _ _ _ P _ 
3 | _ _ P _ _ P _ N 
2 | _ P _ P P _ _ P 
1 | R N B Q K B _ R 
-------------------
  | A B C D E F G H 

Turn of: black
Succesful move
f7f6
8 | R N _ Q K B N _ 
7 | P _ P P P _ P R 
6 | B P _ _ _ P _ _ 
5 | _ _ _ _ _ _ _ P 
4 | P _ _ _ _ _ P _ 
3 | _ _ P _ _ P _ N 
2 | _ P _ P P _ _ P 
1 | R N B Q K B _ R 
-------------------
  | A B C D E F G H 

Turn of: white
Succesful move
h3f4
8 | R N _ Q K B N _ 
7 | P _ P P P _ P R 
6 | B P _ _ _ P _ _ 
5 | _ _ _ _ _ _ _ P 
4 | P _ _ _ _ N P _ 
3 | _ _ P _ _ P _ _ 
2 | _ P _ P P _ _ P 
1 | R N B Q K B _ R 
-------------------
  | A B C D E F G H 

Turn of: black
Succesful move
e7e5
8 | R N _ Q K B N _ 
7 | P _ P P _ _ P R 
6 | B P _ _ _ P _ _ 
5 | _ _ _ _ P _ _ P 
4 | P _ _ _ _ N P _ 
3 | _ _ P _ _ P _ _ 
2 | _ P _ P P _ _ P 
1 | R N B Q K B _ R 
-------------------
  | A B C D E F G H 

Turn of: white
Succesful move
d1c2
8 | R N _ Q K B N _ 
7 | P _ P P _ _ P R 
6 | B P _ _ _ P _ _ 
5 | _ _ _ _ P _ _ P 
4 | P _ _ _ _ N P _ 
3 | _ _ P _ _ P _ _ 
2 | _ P Q P P _ _ P 
1 | R N B _ K B _ R 
-------------------
  | A B C D E F G H 

Turn of: black
Succesful move
f6f5
8 | R N _ Q K B N _ 
7 | P _ P P _ _ P R 
6 | B P _ _ _ _ _ _ 
5 | _ _ _ _ P P _ P 
4 | P _ _ _ _ N P _ 
3 | _ _ P _ _ P _ _ 
2 | _ P Q P P _ _ P 
1 | R N B _ K B _ R 
-------------------
  | A B C D E F G H 

Turn of: white
Succesful move
f4g6
8 | R N _ Q K B N _ 
7 | P _ P P _ _ P R 
6 | B P _ _ _ _ N _ 
5 | _ _ _ _ P P _ P 
4 | P _ _ _ _ _ P _ 
3 | _ _ P _ _ P _ _ 
2 | _ P Q P P _ _ P 
1 | R N B _ K B _ R 
-------------------
  | A B C D E F G H 

Turn of: black
Succesful move
f5g4
8 | R N _ Q K B N _ 
7 | P _ P P _ _ P R 
6 | B P _ _ _ _ N _ 
5 | _ _ _ _ P _ _ P 
4 | P _ _ _ _ _ P _ 
3 | _ _ P _ _ P _ _ 
2 | _ P Q P P _ _ P 
1 | R N B _ K B _ R 
-------------------
  | A B C D E F G H 

Turn of: white
Succesful move
c2f5
8 | R N _ Q K B N _ 
7 | P _ P P _ _ P R 
6 | B P _ _ _ _ N _ 
5 | _ _ _ _ P Q _ P 
4 | P _ _ _ _ _ P _ 
3 | _ _ P _ _ P _ _ 
2 | _ P _ P P _ _ P 
1 | R N B _ K B _ R 
-------------------
  | A B C D E F G H 

Turn of: black
Succesful move
f8d6
8 | R N _ Q K _ N _ 
7 | P _ P P _ _ P R 
6 | B P _ B _ _ N _ 
5 | _ _ _ _ P Q _ P 
4 | P _ _ _ _ _ P _ 
3 | _ _ P _ _ P _ _ 
2 | _ P _ P P _ _ P 
1 | R N B _ K B _ R 
-------------------
  | A B C D E F G H 

Turn of: white
Succesful move
f3f4
8 | R N _ Q K _ N _ 
7 | P _ P P _ _ P R 
6 | B P _ B _ _ N _ 
5 | _ _ _ _ P Q _ P 
4 | P _ _ _ _ P P _ 
3 | _ _ P _ _ _ _ _ 
2 | _ P _ P P _ _ P 
1 | R N B _ K B _ R 
-------------------
  | A B C D E F G H 

Turn of: black
Succesful move
a6b7
8 | R N _ Q K _ N _ 
7 | P B P P _ _ P R 
6 | _ P _ B _ _ N _ 
5 | _ _ _ _ P Q _ P 
4 | P _ _ _ _ P P _ 
3 | _ _ P _ _ _ _ _ 
2 | _ P _ P P _ _ P 
1 | R N B _ K B _ R 
-------------------
  | A B C D E F G H 

We are playing as White
Move history:
c2c3
b7b6
a2a4
h7h5
g1h3
h8h7
g2g4
c8a6
f2f3
f7f6
h3f4
e7e5
d1c2
f6f5
f4g6
f5g4
c2f5
f8d6
f3f4
a6b7
8 | R N _ Q K _ N _ 
7 | P B P P _ _ P R 
6 | _ P _ B _ _ N _ 
5 | _ _ _ _ P Q _ P 
4 | P _ _ _ _ P P _ 
3 | _ _ P _ _ _ _ _ 
2 | _ P _ P P _ _ P 
1 | R N B _ K B _ R 
-------------------
  | A B C D E F G H 

It is white's turn to play.
AI's move: f5f7
Move written: f5f7
[32;1m[Game] [0mPlayer's error code: 0
[32;1m[Game] [0mChecking move validity...
[32;1m[Board] [0mInitializing board...
[32;1m[Board] [0mLoading history file `championship/lizzie-iii-shallowcyan/history.csv`...
[32;1m[Board] [0mLoaded 20 move(s).
[32;1m[Board] [0mLoading move file `championship/lizzie-iii-shallowcyan/move.csv`...
[32;1m[Board] [0mWhite player is playing f5 to f7.
[32;1m[Board] [0m
[32;1m[Board] [0m    a b c d e f g h 
[32;1m[Board] [0m  -------------------
[32;1m[Board] [0m8 ||[30;1mr[0m|[30;1mk[0m|[7;1m [0m|[30;1mQ[0m|[30;1mK[0m| |[30;1mk[0m| || 8
[32;1m[Board] [0m  -------------------
[32;1m[Board] [0m7 ||[30;1mp[0m|[30;1mb[0m|[30;1mp[0m|[30;1mp[0m| |[0;1mQ[0m|[30;1mp[0m|[30;1mr[0m|| 7
[32;1m[Board] [0m  -------------------
[32;1m[Board] [0m6 ||[7;1m [0m|[30;1mp[0m|[7;1m [0m|[30;1mb[0m|[7;1m [0m| |[0;1mk[0m| || 6
[32;1m[Board] [0m  -------------------
[32;1m[Board] [0m5 || |[7;1m [0m| |[7;1m [0m|[30;1mp[0m|[7;1m [0m| |[30;1mp[0m|| 5
[32;1m[Board] [0m  -------------------
[32;1m[Board] [0m4 ||[0;1mp[0m| |[7;1m [0m| |[7;1m [0m|[0;1mp[0m|[30;1mp[0m| || 4
[32;1m[Board] [0m  -------------------
[32;1m[Board] [0m3 || |[7;1m [0m|[0;1mp[0m|[7;1m [0m| |[7;1m [0m| |[7;1m [0m|| 3
[32;1m[Board] [0m  -------------------
[32;1m[Board] [0m2 ||[7;1m [0m|[0;1mp[0m|[7;1m [0m|[0;1mp[0m|[0;1mp[0m| |[7;1m [0m|[0;1mp[0m|| 2
[32;1m[Board] [0m  -------------------
[32;1m[Board] [0m1 ||[0;1mr[0m|[0;1mk[0m|[0;1mb[0m|[7;1m [0m|[0;1mK[0m|[0;1mb[0m| |[0;1mr[0m|| 1
[32;1m[Board] [0m  -------------------
[32;1m[Board] [0m    a b c d e f g h
[32;1m[Board] [0m
[32;1m[Referee] [0mThis is the turn of the Black player...
[32;1m[Board] [0m[33;1m[WARNING][0m [5;1mBlack King in check![0m
[32;1m[Board] [0m[33;1m[WARNING][0m    Threatened by White Queen (f7)
8 [100m ♖ [43m ♘ [100m   [43m ♕ [100m ♔ [43m   [100m ♘ [43m   [40m
7 [43m ♙ [100m ♗ [43m ♙ [100m ♙ [43m   [100m ♛ [43m ♙ [100m ♖ [40m
6 [100m   [43m ♙ [100m   [43m ♗ [100m   [43m   [100m ♞ [43m   [40m
5 [43m   [100m   [43m   [100m   [43m ♙ [100m   [43m   [100m ♙ [40m
4 [100m ♟ [43m   [100m   [43m   [100m   [43m ♟ [100m ♙ [43m   [40m
3 [43m   [100m   [43m ♟ [100m   [43m   [100m   [43m   [100m   [40m
2 [100m   [43m ♟ [100m   [43m ♟ [100m ♟ [43m   [100m   [43m ♟ [40m
1 [43m ♜ [100m ♞ [43m ♝ [100m   [43m ♚ [100m ♝ [43m   [100m ♜ [40m
   a  b  c  d  e  f  g  h  
[32;1m[Game] [0mPlayer's error code: 0
[32;1m[Game] [0mChecking move validity...
[32;1m[Board] [0mInitializing board...
[32;1m[Board] [0mLoading history file `championship/lizzie-iii-shallowcyan/history.csv`...
[32;1m[Board] [0mLoaded 21 move(s).
[32;1m[Board] [0mLoading move file `championship/lizzie-iii-shallowcyan/move.csv`...
[32;1m[Board] [0mBlack player is playing e8 to f7.
[32;1m[Board] [0m[5;1mBlack King is taking White Queen.[0m
[32;1m[Board] [0m
[32;1m[Board] [0m    a b c d e f g h 
[32;1m[Board] [0m  -------------------
[32;1m[Board] [0m8 ||[30;1mr[0m|[30;1mk[0m|[7;1m [0m|[30;1mQ[0m|[7;1m [0m| |[30;1mk[0m| || 8
[32;1m[Board] [0m  -------------------
[32;1m[Board] [0m7 ||[30;1mp[0m|[30;1mb[0m|[30;1mp[0m|[30;1mp[0m| |[30;1mK[0m|[30;1mp[0m|[30;1mr[0m|| 7
[32;1m[Board] [0m  -------------------
[...]
f3f2
8 | R N _ _ _ _ N R 
7 | P _ P P _ K P _ 
6 | _ P _ B _ _ _ _ 
5 | P _ _ _ _ _ _ P 
4 | _ _ P _ _ _ _ _ 
3 | _ _ N K P _ _ P 
2 | _ P _ P _ P _ P 
1 | R _ B _ _ _ Q B 
-------------------
  | A B C D E F G H 

We are playing as White
Move history:
c2c3
b7b6
a2a4
h7h5
g1h3
h8h7
g2g4
c8a6
f2f3
f7f6
h3f4
e7e5
d1c2
f6f5
f4g6
f5g4
c2f5
f8d6
f3f4
a6b7
f5f7
e8f7
e2e3
b7h1
g6h8
h7h8
f1h3
g4h3
c3c4
e5f4
a4a5
d8g5
b1c3
g5g1
e1e2
f4f3
e2d3
f3f2
8 | R N _ _ _ _ N R 
7 | P _ P P _ K P _ 
6 | _ P _ B _ _ _ _ 
5 | P _ _ _ _ _ _ P 
4 | _ _ P _ _ _ _ _ 
3 | _ _ N K P _ _ P 
2 | _ P _ P _ P _ P 
1 | R _ B _ _ _ Q B 
-------------------
  | A B C D E F G H 

It is white's turn to play.
AI's move: a1b1
Move written: a1b1
[32;1m[Game] [0mPlayer's error code: 0
[32;1m[Game] [0mChecking move validity...
[32;1m[Board] [0mInitializing board...
[32;1m[Board] [0mLoading history file `championship/lizzie-iii-shallowcyan/history.csv`...
[32;1m[Board] [0mLoaded 38 move(s).
[32;1m[Board] [0mLoading move file `championship/lizzie-iii-shallowcyan/move.csv`...
[32;1m[Board] [0mWhite player is playing a1 to b1.
[32;1m[Board] [0m
[32;1m[Board] [0m    a b c d e f g h 
[32;1m[Board] [0m  -------------------
[32;1m[Board] [0m8 ||[30;1mr[0m|[30;1mk[0m|[7;1m [0m| |[7;1m [0m| |[30;1mk[0m|[30;1mr[0m|| 8
[32;1m[Board] [0m  -------------------
[32;1m[Board] [0m7 ||[30;1mp[0m|[7;1m [0m|[30;1mp[0m|[30;1mp[0m| |[30;1mK[0m|[30;1mp[0m|[7;1m [0m|| 7
[32;1m[Board] [0m  -------------------
[32;1m[Board] [0m6 ||[7;1m [0m|[30;1mp[0m|[7;1m [0m|[30;1mb[0m|[7;1m [0m| |[7;1m [0m| || 6
[32;1m[Board] [0m  -------------------
[32;1m[Board] [0m5 ||[0;1mp[0m|[7;1m [0m| |[7;1m [0m| |[7;1m [0m| |[30;1mp[0m|| 5
[32;1m[Board] [0m  -------------------
[32;1m[Board] [0m4 ||[7;1m [0m| |[0;1mp[0m| |[7;1m [0m| |[7;1m [0m| || 4
[32;1m[Board] [0m  -------------------
[32;1m[Board] [0m3 || |[7;1m [0m|[0;1mk[0m|[0;1mK[0m|[0;1mp[0m|[7;1m [0m| |[30;1mp[0m|| 3
[32;1m[Board] [0m  -------------------
[32;1m[Board] [0m2 ||[7;1m [0m|[0;1mp[0m|[7;1m [0m|[0;1mp[0m|[7;1m [0m|[30;1mp[0m|[7;1m [0m|[0;1mp[0m|| 2
[32;1m[Board] [0m  -------------------
[32;1m[Board] [0m1 || |[0;1mr[0m|[0;1mb[0m|[7;1m [0m| |[7;1m [0m|[30;1mQ[0m|[30;1mb[0m|| 1
[32;1m[Board] [0m  -------------------
[32;1m[Board] [0m    a b c d e f g h
[32;1m[Board] [0m
[32;1m[Referee] [0mThis is the turn of the Black player...
8 [100m ♖ [43m ♘ [100m   [43m   [100m   [43m   [100m ♘ [43m ♖ [40m
7 [43m ♙ [100m   [43m ♙ [100m ♙ [43m   [100m ♔ [43m ♙ [100m   [40m
6 [100m   [43m ♙ [100m   [43m ♗ [100m   [43m   [100m   [43m   [40m
5 [43m ♟ [100m   [43m   [100m   [43m   [100m   [43m   [100m ♙ [40m
4 [100m   [43m   [100m ♟ [43m   [100m   [43m   [100m   [43m   [40m
3 [43m   [100m   [43m ♞ [100m ♚ [43m ♟ [100m   [43m   [100m ♙ [40m
2 [100m   [43m ♟ [100m   [43m ♟ [100m   [43m ♙ [100m   [43m ♟ [40m
1 [43m   [100m ♜ [43m ♝ [100m   [43m   [100m   [43m ♕ [100m ♗ [40m
   a  b  c  d  e  f  g  h  
[32;1m[Game] [0mPlayer's error code: 0
[32;1m[Game] [0mChecking move validity...
[32;1m[Board] [0mInitializing board...
[32;1m[Board] [0mLoading history file `championship/lizzie-iii-shallowcyan/history.csv`...
[32;1m[Board] [0mLoaded 39 move(s).
[32;1m[Board] [0mLoading move file `championship/lizzie-iii-shallowcyan/move.csv`...
[32;1m[Board] [0mBlack player is playing f2 to f1.
[32;1m[Board] [0mPromoting a Black Pawn into a Queen
[32;1m[Board] [0m
[32;1m[Board] [0m    a b c d e f g h 
[32;1m[Board] [0m  -------------------
[32;1m[Board] [0m8 ||[30;1mr[0m|[30;1mk[0m|[7;1m [0m| |[7;1m [0m| |[30;1mk[0m|[30;1mr[0m|| 8
[32;1m[Board] [0m  -------------------
[32;1m[Board] [0m7 ||[30;1mp[0m|[7;1m [0m|[30;1mp[0m|[30;1mp[0m| |[30;1mK[0m|[30;1mp[0m|[7;1m [0m|| 7
[32;1m[Board] [0m  -------------------
[32;1m[Board] [0m6 ||[7;1m [0m|[30;1mp[0m|[7;1m [0m|[30;1mb[0m|[7;1m [0m| |[7;1m [0m| || 6
[32;1m[Board] [0m  -------------------
[32;1m[Board] [0m5 ||[0;1mp[0m|[7;1m [0m| |[7;1m [0m| |[7;1m [0m| |[30;1mp[0m|| 5
[32;1m[Board] [0m  -------------------
[32;1m[Board] [0m4 ||[7;1m [0m| |[0;1mp[0m| |[7;1m [0m| |[7;1m [0m| || 4
[32;1m[Board] [0m  -------------------
[32;1m[Board] [0m3 || |[7;1m [0m|[0;1mk[0m|[0;1mK[0m|[0;1mp[0m|[7;1m [0m| |[30;1mp[0m|| 3
[32;1m[Board] [0m  -------------------
[32;1m[Board] [0m2 ||[7;1m [0m|[0;1mp[0m|[7;1m [0m|[0;1mp[0m|[7;1m [0m| |[7;1m [0m|[0;1mp[0m|| 2
[32;1m[Board] [0m  -------------------
[32;1m[Board] [0m1 || |[0;1mr[0m|[0;1mb[0m|[7;1m [0m| |[30;1mQ[0m|[30;1mQ[0m|[30;1mb[0m|| 1
[32;1m[Board] [0m  -------------------
[32;1m[Board] [0m    a b c d e f g h
[32;1m[Board] [0m
[32;1m[Referee] [0mThis is the turn of the White player...
[32;1m[Board] [0m[33;1m[WARNING][0m [5;1mWhite King in check![0m
[32;1m[Board] [0m[33;1m[WARNING][0m    Threatened by Black Queen (f1)
Input file: championship/lizzie-iii-shallowcyan/history.csv
Output file: championship/lizzie-iii-shallowcyan/move.csv
Turn of: white
Succesful move
c2c3
8 | R N B Q K B N R 
7 | P P P P P P P P 
6 | _ _ _ _ _ _ _ _ 
5 | _ _ _ _ _ _ _ _ 
4 | _ _ _ _ _ _ _ _ 
3 | _ _ P _ _ _ _ _ 
2 | P P _ P P P P P 
1 | R N B Q K B N R 
-------------------
  | A B C D E F G H 

Turn of: black
Succesful move
b7b6
8 | R N B Q K B N R 
7 | P _ P P P P P P 
6 | _ P _ _ _ _ _ _ 
5 | _ _ _ _ _ _ _ _ 
4 | _ _ _ _ _ _ _ _ 
3 | _ _ P _ _ _ _ _ 
2 | P P _ P P P P P 
1 | R N B Q K B N R 
-------------------
  | A B C D E F G H 

Turn of: white
Succesful move
a2a4
8 | R N B Q K B N R 
7 | P _ P P P P P P 
6 | _ P _ _ _ _ _ _ 
5 | _ _ _ _ _ _ _ _ 
4 | P _ _ _ _ _ _ _ 
3 | _ _ P _ _ _ _ _ 
2 | _ P _ P P P P P 
1 | R N B Q K B N R 
-------------------
  | A B C D E F G H 

Turn of: black
Succesful move
h7h5
8 | R N B Q K B N R 
7 | P _ P P P P P _ 
6 | _ P _ _ _ _ _ _ 
5 | _ _ _ _ _ _ _ P 
4 | P _ _ _ _ _ _ _ 
3 | _ _ P _ _ _ _ _ 
2 | _ P _ P P P P P 
1 | R N B Q K B N R 
-------------------
  | A B C D E F G H 

Turn of: white
Succesful move
g1h3
8 | R N B Q K B N R 
7 | P _ P P P P P _ 
6 | _ P _ _ _ _ _ _ 
5 | _ _ _ _ _ _ _ P 
4 | P _ _ _ _ _ _ _ 
3 | _ _ P _ _ _ _ N 
2 | _ P _ P P P P P 
1 | R N B Q K B _ R 
-------------------
  | A B C D E F G H 

Turn of: black
Succesful move
h8h7
8 | R N B Q K B N _ 
7 | P _ P P P P P R 
6 | _ P _ _ _ _ _ _ 
5 | _ _ _ _ _ _ _ P 
4 | P _ _ _ _ _ _ _ 
3 | _ _ P _ _ _ _ N 
2 | _ P _ P P P P P 
1 | R N B Q K B _ R 
-------------------
  | A B C D E F G H 

Turn of: white
Succesful move
g2g4
8 | R N B Q K B N _ 
7 | P _ P P P P P R 
6 | _ P _ _ _ _ _ _ 
5 | _ _ _ _ _ _ _ P 
4 | P _ _ _ _ _ P _ 
3 | _ _ P _ _ _ _ N 
2 | _ P _ P P P _ P 
1 | R N B Q K B _ R 
-------------------
  | A B C D E F G H 

Turn of: black
Succesful move
c8a6
8 | R N _ Q K B N _ 
7 | P _ P P P P P R 
6 | B P _ _ _ _ _ _ 
5 | _ _ _ _ _ _ _ P 
4 | P _ _ _ _ _ P _ 
3 | _ _ P _ _ _ _ N 
2 | _ P _ P P P _ P 
1 | R N B Q K B _ R 
-------------------
  | A B C D E F G H 

Turn of: white
Succesful move
f2f3
8 | R N _ Q K B N _ 
7 | P _ P P P P P R 
6 | B P _ _ _ _ _ _ 
5 | _ _ _ _ _ _ _ P 
4 | P _ _ _ _ _ P _ 
3 | _ _ P _ _ P _ N 
2 | _ P _ P P _ _ P 
1 | R N B Q K B _ R 
-------------------
  | A B C D E F G H 

Turn of: black
Succesful move
f7f6
8 | R N _ Q K B N _ 
7 | P _ P P P _ P R 
6 | B P _ _ _ P _ _ 
5 | _ _ _ _ _ _ _ P 
4 | P _ _ _ _ _ P _ 
3 | _ _ P _ _ P _ N 
2 | _ P _ P P _ _ P 
1 | R N B Q K B _ R 
-------------------
  | A B C D E F G H 

Turn of: white
Succesful move
h3f4
8 | R N _ Q K B N _ 
7 | P _ P P P _ P R 
6 | B P _ _ _ P _ _ 
5 | _ _ _ _ _ _ _ P 
4 | P _ _ _ _ N P _ 
3 | _ _ P _ _ P _ _ 
2 | _ P _ P P _ _ P 
1 | R N B Q K B _ R 
-------------------
  | A B C D E F G H 

Turn of: black
Succesful move
e7e5
8 | R N _ Q K B N _ 
7 | P _ P P _ _ P R 
6 | B P _ _ _ P _ _ 
5 | _ _ _ _ P _ _ P 
4 | P _ _ _ _ N P _ 
3 | _ _ P _ _ P _ _ 
2 | _ P _ P P _ _ P 
1 | R N B Q K B _ R 
-------------------
  | A B C D E F G H 

Turn of: white
Succesful move
d1c2
8 | R N _ Q K B N _ 
7 | P _ P P _ _ P R 
6 | B P _ _ _ P _ _ 
5 | _ _ _ _ P _ _ P 
4 | P _ _ _ _ N P _ 
3 | _ _ P _ _ P _ _ 
2 | _ P Q P P _ _ P 
1 | R N B _ K B _ R 
-------------------
  | A B C D E F G H 

Turn of: black
Succesful move
f6f5
8 | R N _ Q K B N _ 
7 | P _ P P _ _ P R 
6 | B P _ _ _ _ _ _ 
5 | _ _ _ _ P P _ P 
4 | P _ _ _ _ N P _ 
3 | _ _ P _ _ P _ _ 
2 | _ P Q P P _ _ P 
1 | R N B _ K B _ R 
-------------------
  | A B C D E F G H 

Turn of: white
Succesful move
f4g6
8 | R N _ Q K B N _ 
7 | P _ P P _ _ P R 
6 | B P _ _ _ _ N _ 
5 | _ _ _ _ P P _ P 
4 | P _ _ _ _ _ P _ 
3 | _ _ P _ _ P _ _ 
2 | _ P Q P P _ _ P 
1 | R N B _ K B _ R 
-------------------
  | A B C D E F G H 

Turn of: black
Succesful move
f5g4
8 | R N _ Q K B N _ 
7 | P _ P P _ _ P R 
6 | B P _ _ _ _ N _ 
5 | _ _ _ _ P _ _ P 
4 | P _ _ _ _ _ P _ 
3 | _ _ P _ _ P _ _ 
2 | _ P Q P P _ _ P 
1 | R N B _ K B _ R 
-------------------
  | A B C D E F G H 

Turn of: white
Succesful move
c2f5
8 | R N _ Q K B N _ 
7 | P _ P P _ _ P R 
6 | B P _ _ _ _ N _ 
5 | _ _ _ _ P Q _ P 
4 | P _ _ _ _ _ P _ 
3 | _ _ P _ _ P _ _ 
2 | _ P _ P P _ _ P 
1 | R N B _ K B _ R 
-------------------
  | A B C D E F G H 

Turn of: black
Succesful move
f8d6
8 | R N _ Q K _ N _ 
7 | P _ P P _ _ P R 
6 | B P _ B _ _ N _ 
5 | _ _ _ _ P Q _ P 
4 | P _ _ _ _ _ P _ 
3 | _ _ P _ _ P _ _ 
2 | _ P _ P P _ _ P 
1 | R N B _ K B _ R 
-------------------
  | A B C D E F G H 

Turn of: white
Succesful move
f3f4
8 | R N _ Q K _ N _ 
7 | P _ P P _ _ P R 
6 | B P _ B _ _ N _ 
5 | _ _ _ _ P Q _ P 
4 | P _ _ _ _ P P _ 
3 | _ _ P _ _ _ _ _ 
2 | _ P _ P P _ _ P 
1 | R N B _ K B _ R 
-------------------
  | A B C D E F G H 

Turn of: black
Succesful move
a6b7
8 | R N _ Q K _ N _ 
7 | P B P P _ _ P R 
6 | _ P _ B _ _ N _ 
5 | _ _ _ _ P Q _ P 
4 | P _ _ _ _ P P _ 
3 | _ _ P _ _ _ _ _ 
2 | _ P _ P P _ _ P 
1 | R N B _ K B _ R 
-------------------
  | A B C D E F G H 

Turn of: white
Succesful move
f5f7
8 | R N _ Q K _ N _ 
7 | P B P P _ Q P R 
6 | _ P _ B _ _ N _ 
5 | _ _ _ _ P _ _ P 
4 | P _ _ _ _ P P _ 
3 | _ _ P _ _ _ _ _ 
2 | _ P _ P P _ _ P 
1 | R N B _ K B _ R 
-------------------
  | A B C D E F G H 

Turn of: black
Succesful move
e8f7
8 | R N _ Q _ _ N _ 
7 | P B P P _ K P R 
6 | _ P _ B _ _ N _ 
5 | _ _ _ _ P _ _ P 
4 | P _ _ _ _ P P _ 
3 | _ _ P _ _ _ _ _ 
2 | _ P _ P P _ _ P 
1 | R N B _ K B _ R 
-------------------
  | A B C D E F G H 

Turn of: white
Succesful move
e2e3
8 | R N _ Q _ _ N _ 
7 | P B P P _ K P R 
6 | _ P _ B _ _ N _ 
5 | _ _ _ _ P _ _ P 
4 | P _ _ _ _ P P _ 
3 | _ _ P _ P _ _ _ 
2 | _ P _ P _ _ _ P 
1 | R N B _ K B _ R 
-------------------
  | A B C D E F G H 

Turn of: black
Succesful move
b7h1
8 | R N _ Q _ _ N _ 
7 | P _ P P _ K P R 
6 | _ P _ B _ _ N _ 
5 | _ _ _ _ P _ _ P 
4 | P _ _ _ _ P P _ 
3 | _ _ P _ P _ _ _ 
2 | _ P _ P _ _ _ P 
1 | R N B _ K B _ B 
-------------------
  | A B C D E F G H 

Turn of: white
Succesful move
g6h8
8 | R N _ Q _ _ N N 
7 | P _ P P _ K P R 
6 | _ P _ B _ _ _ _ 
5 | _ _ _ _ P _ _ P 
4 | P _ _ _ _ P P _ 
3 | _ _ P _ P _ _ _ 
2 | _ P _ P _ _ _ P 
1 | R N B _ K B _ B 
-------------------
  | A B C D E F G H 

Turn of: black
Succesful move
h7h8
8 | R N _ Q _ _ N R 
7 | P _ P P _ K P _ 
6 | _ P _ B _ _ _ _ 
5 | _ _ _ _ P _ _ P 
4 | P _ _ _ _ P P _ 
3 | _ _ P _ P _ _ _ 
2 | _ P _ P _ _ _ P 
1 | R N B _ K B _ B 
-------------------
  | A B C D E F G H 

Turn of: white
Succesful move
f1h3
8 | R N _ Q _ _ N R 
7 | P _ P P _ K P _ 
6 | _ P _ B _ _ _ _ 
5 | _ _ _ _ P _ _ P 
4 | P _ _ _ _ P P _ 
3 | _ _ P _ P _ _ B 
2 | _ P _ P _ _ _ P 
1 | R N B _ K _ _ B 
-------------------
  | A B C D E F G H 

Turn of: black
Succesful move
g4h3
8 | R N _ Q _ _ N R 
7 | P _ P P _ K P _ 
6 | _ P _ B _ _ _ _ 
5 | _ _ _ _ P _ _ P 
4 | P _ _ _ _ P _ _ 
3 | _ _ P _ P _ _ P 
2 | _ P _ P _ _ _ P 
1 | R N B _ K _ _ B 
-------------------
  | A B C D E F G H 

Turn of: white
Succesful move
c3c4
8 | R N _ Q _ _ N R 
7 | P _ P P _ K P _ 
6 | _ P _ B _ _ _ _ 
5 | _ _ _ _ P _ _ P 
4 | P _ P _ _ P _ _ 
3 | _ _ _ _ P _ _ P 
2 | _ P _ P _ _ _ P 
1 | R N B _ K _ _ B 
-------------------
  | A B C D E F G H 

Turn of: black
Succesful move
e5f4
8 | R N _ Q _ _ N R 
7 | P _ P P _ K P _ 
6 | _ P _ B _ _ _ _ 
5 | _ _ _ _ _ _ _ P 
4 | P _ P _ _ P _ _ 
3 | _ _ _ _ P _ _ P 
2 | _ P _ P _ _ _ P 
1 | R N B _ K _ _ B 
-------------------
  | A B C D E F G H 

Turn of: white
Succesful move
a4a5
8 | R N _ Q _ _ N R 
7 | P _ P P _ K P _ 
6 | _ P _ B _ _ _ _ 
5 | P _ _ _ _ _ _ P 
4 | _ _ P _ _ P _ _ 
3 | _ _ _ _ P _ _ P 
2 | _ P _ P _ _ _ P 
1 | R N B _ K _ _ B 
-------------------
  | A B C D E F G H 

Turn of: black
Succesful move
d8g5
8 | R N _ _ _ _ N R 
7 | P _ P P _ K P _ 
6 | _ P _ B _ _ _ _ 
5 | P _ _ _ _ _ Q P 
4 | _ _ P _ _ P _ _ 
3 | _ _ _ _ P _ _ P 
2 | _ P _ P _ _ _ P 
1 | R N B _ K _ _ B 
-------------------
  | A B C D E F G H 

Turn of: white
Succesful move
b1c3
8 | R N _ _ _ _ N R 
7 | P _ P P _ K P _ 
6 | _ P _ B _ _ _ _ 
5 | P _ _ _ _ _ Q P 
4 | _ _ P _ _ P _ _ 
3 | _ _ N _ P _ _ P 
2 | _ P _ P _ _ _ P 
1 | R _ B _ K _ _ B 
-------------------
  | A B C D E F G H 

Turn of: black
Succesful move
g5g1
8 | R N _ _ _ _ N R 
7 | P _ P P _ K P _ 
6 | _ P _ B _ _ _ _ 
5 | P _ _ _ _ _ _ P 
4 | _ _ P _ _ P _ _ 
3 | _ _ N _ P _ _ P 
2 | _ P _ P _ _ _ P 
1 | R _ B _ K _ Q B 
-------------------
  | A B C D E F G H 

Turn of: white
Succesful move
e1e2
8 | R N _ _ _ _ N R 
7 | P _ P P _ K P _ 
6 | _ P _ B _ _ _ _ 
5 | P _ _ _ _ _ _ P 
4 | _ _ P _ _ P _ _ 
3 | _ _ N _ P _ _ P 
2 | _ P _ P K _ _ P 
1 | R _ B _ _ _ Q B 
-------------------
  | A B C D E F G H 

Turn of: black
Succesful move
f4f3
8 | R N _ _ _ _ N R 
7 | P _ P P _ K P _ 
6 | _ P _ B _ _ _ _ 
5 | P _ _ _ _ _ _ P 
4 | _ _ P _ _ _ _ _ 
3 | _ _ N _ P P _ P 
2 | _ P _ P K _ _ P 
1 | R _ B _ _ _ Q B 
-------------------
  | A B C D E F G H 

Turn of: white
Succesful move
e2d3
8 | R N _ _ _ _ N R 
7 | P _ P P _ K P _ 
6 | _ P _ B _ _ _ _ 
5 | P _ _ _ _ _ _ P 
4 | _ _ P _ _ _ _ _ 
3 | _ _ N K P P _ P 
2 | _ P _ P _ _ _ P 
1 | R _ B _ _ _ Q B 
-------------------
  | A B C D E F G H 

Turn of: black
Succesful move
f3f2
8 | R N _ _ _ _ N R 
7 | P _ P P _ K P _ 
6 | _ P _ B _ _ _ _ 
5 | P _ _ _ _ _ _ P 
4 | _ _ P _ _ _ _ _ 
3 | _ _ N K P _ _ P 
2 | _ P _ P _ P _ P 
1 | R _ B _ _ _ Q B 
-------------------
  | A B C D E F G H 

Turn of: white
Succesful move
a1b1
8 | R N _ _ _ _ N R 
7 | P _ P P _ K P _ 
6 | _ P _ B _ _ _ _ 
5 | P _ _ _ _ _ _ P 
4 | _ _ P _ _ _ _ _ 
3 | _ _ N K P _ _ P 
2 | _ P _ P _ P _ P 
1 | _ R B _ _ _ Q B 
-------------------
  | A B C D E F G H 

Turn of: black
Succesful move
f2f1q
8 | R N _ _ _ _ N R 
7 | P _ P P _ K P _ 
6 | _ P _ B _ _ _ _ 
5 | P _ _ _ _ _ _ P 
4 | _ _ P _ _ _ _ _ 
3 | _ _ N K P _ _ P 
2 | _ P _ P _ _ _ P 
1 | _ R B _ _ Q Q B 
-------------------
  | A B C D E F G H 

We are playing as White
Move history:
c2c3
b7b6
a2a4
h7h5
g1h3
h8h7
g2g4
c8a6
f2f3
f7f6
h3f4
e7e5
d1c2
f6f5
f4g6
f5g4
c2f5
f8d6
f3f4
a6b7
f5f7
e8f7
e2e3
b7h1
g6h8
h7h8
f1h3
g4h3
c3c4
e5f4
a4a5
d8g5
b1c3
g5g1
e1e2
f4f3
e2d3
f3f2
a1b1
f2f1q
8 | R N _ _ _ _ N R 
7 | P _ P P _ K P _ 
6 | _ P _ B _ _ _ _ 
5 | P _ _ _ _ _ _ P 
4 | _ _ P _ _ _ _ _ 
3 | _ _ N K P _ _ P 
2 | _ P _ P _ _ _ P 
1 | _ R B _ _ Q Q B 
-------------------
  | A B C D E F G H 

It is white's turn to play.
AI's move: d3d4
Move written: d3d4
[32;1m[Game] [0mPlayer's error code: 0
[32;1m[Game] [0mChecking move validity...
[32;1m[Board] [0mInitializing board...
[32;1m[Board] [0mLoading history file `championship/lizzie-iii-shallowcyan/history.csv`...
[32;1m[Board] [0mLoaded 40 move(s).
[32;1m[Board] [0mLoading move file `championship/lizzie-iii-shallowcyan/move.csv`...
[32;1m[Board] [0mWhite player is playing d3 to d4.
[32;1m[Board] [0m
[32;1m[Board] [0m    a b c d e f g h 
[32;1m[Board] [0m  -------------------
[32;1m[Board] [0m8 ||[30;1mr[0m|[30;1mk[0m|[7;1m [0m| |[7;1m [0m| |[30;1mk[0m|[30;1mr[0m|| 8
[32;1m[Board] [0m  -------------------
[32;1m[Board] [0m7 ||[30;1mp[0m|[7;1m [0m|[30;1mp[0m|[30;1mp[0m| |[30;1mK[0m|[30;1mp[0m|[7;1m [0m|| 7
[32;1m[Board] [0m  -------------------
[32;1m[Board] [0m6 ||[7;1m [0m|[30;1mp[0m|[7;1m [0m|[30;1mb[0m|[7;1m [0m| |[7;1m [0m| || 6
[32;1m[Board] [0m  -------------------
[32;1m[Board] [0m5 ||[0;1mp[0m|[7;1m [0m| |[7;1m [0m| |[7;1m [0m| |[30;1mp[0m|| 5
[32;1m[Board] [0m  -------------------
[32;1m[Board] [0m4 ||[7;1m [0m| |[0;1mp[0m|[0;1mK[0m|[7;1m [0m| |[7;1m [0m| || 4
[32;1m[Board] [0m  -------------------
[32;1m[Board] [0m3 || |[7;1m [0m|[0;1mk[0m|[7;1m [0m|[0;1mp[0m|[7;1m [0m| |[30;1mp[0m|| 3
[32;1m[Board] [0m  -------------------
[32;1m[Board] [0m2 ||[7;1m [0m|[0;1mp[0m|[7;1m [0m|[0;1mp[0m|[7;1m [0m| |[7;1m [0m|[0;1mp[0m|| 2
[32;1m[Board] [0m  -------------------
[32;1m[Board] [0m1 || |[0;1mr[0m|[0;1mb[0m|[7;1m [0m| |[30;1mQ[0m|[30;1mQ[0m|[30;1mb[0m|| 1
[32;1m[Board] [0m  -------------------
[32;1m[Board] [0m    a b c d e f g h
[32;1m[Board] [0m
[32;1m[Referee] [0mThis is the turn of the Black player...
8 [100m ♖ [43m ♘ [100m   [43m   [100m   [43m   [100m ♘ [43m ♖ [40m
7 [43m ♙ [100m   [43m ♙ [100m ♙ [43m   [100m ♔ [43m ♙ [100m   [40m
6 [100m   [43m ♙ [100m   [43m ♗ [100m   [43m   [100m   [43m   [40m
5 [43m ♟ [100m   [43m   [100m   [43m   [100m   [43m   [100m ♙ [40m
4 [100m   [43m   [100m ♟ [43m ♚ [100m   [43m   [100m   [43m   [40m
3 [43m   [100m   [43m ♞ [100m   [43m ♟ [100m   [43m   [100m ♙ [40m
2 [100m   [43m ♟ [100m   [43m ♟ [100m   [43m   [100m   [43m ♟ [40m
1 [43m   [100m ♜ [43m ♝ [100m   [43m   [100m ♕ [43m ♕ [100m ♗ [40m
   a  b  c  d  e  f  g  h  
[32;1m[Game] [0mPlayer's error code: 0
[32;1m[Game] [0mChecking move validity...
[32;1m[Board] [0mInitializing board...
[32;1m[Board] [0mLoading history file `championship/lizzie-iii-shallowcyan/history.csv`...
[32;1m[Board] [0mLoaded 41 move(s).
[32;1m[Board] [0mLoading move file `championship/lizzie-iii-shallowcyan/move.csv`...
[32;1m[Board] [0mBlack player is playing c7 to c5.
[32;1m[Board] [0m
[32;1m[Board] [0m    a b c d e f g h 
[32;1m[Board] [0m  -------------------
[32;1m[Board] [0m8 ||[30;1mr[0m|[30;1mk[0m|[7;1m [0m| |[7;1m [0m| |[30;1mk[0m|[30;1mr[0m|| 8
[32;1m[Board] [0m  -------------------
[32;1m[Board] [0m7 ||[30;1mp[0m|[7;1m [0m| |[30;1mp[0m| |[30;1mK[0m|[30;1mp[0m|[7;1m [0m|| 7
[32;1m[Board] [0m  -------------------
[32;1m[Board] [0m6 ||[7;1m [0m|[30;1mp[0m|[7;1m [0m|[30;1mb[0m|[7;1m [0m| |[7;1m [0m| || 6
[32;1m[Board] [0m  -------------------
[32;1m[Board] [0m5 ||[0;1mp[0m|[7;1m [0m|[30;1mp[0m|[7;1m [0m| |[7;1m [0m| |[30;1mp[0m|| 5
[32;1m[Board] [0m  -------------------
[32;1m[Board] [0m4 ||[7;1m [0m| |[0;1mp[0m|[0;1mK[0m|[7;1m [0m| |[7;1m [0m| || 4
[32;1m[Board] [0m  -------------------
[32;1m[Board] [0m3 || |[7;1m [0m|[0;1mk[0m|[7;1m [0m|[0;1mp[0m|[7;1m [0m| |[30;1mp[0m|| 3
[32;1m[Board] [0m  -------------------
[32;1m[Board] [0m2 ||[7;1m [0m|[0;1mp[0m|[7;1m [0m|[0;1mp[0m|[7;1m [0m| |[7;1m [0m|[0;1mp[0m|| 2
[32;1m[Board] [0m  -------------------
[32;1m[Board] [0m1 || |[0;1mr[0m|[0;1mb[0m|[7;1m [0m| |[30;1mQ[0m|[30;1mQ[0m|[30;1mb[0m|| 1
[32;1m[Board] [0m  -------------------
[32;1m[Board] [0m    a b c d e f g h
[32;1m[Board] [0m
[32;1m[Referee] [0mThis is the turn of the White player...
[32;1m[Board] [0m[33;1m[WARNING][0m [5;1mWhite King in checkmate![0m
[32;1m[Board] [0m[33;1m[WARNING][0m The Black player wins!
