[32;1m[Board] [0mInitializing board...
[32;1m[Board] [0m
[32;1m[Board] [0m    a b c d e f g h 
[32;1m[Board] [0m  -------------------
[32;1m[Board] [0m8 ||[30;1mr[0m|[30;1mk[0m|[30;1mb[0m|[30;1mQ[0m|[30;1mK[0m|[30;1mb[0m|[30;1mk[0m|[30;1mr[0m|| 8
[32;1m[Board] [0m  -------------------
[32;1m[Board] [0m7 ||[30;1mp[0m|[30;1mp[0m|[30;1mp[0m|[30;1mp[0m|[30;1mp[0m|[30;1mp[0m|[30;1mp[0m|[30;1mp[0m|| 7
[32;1m[Board] [0m  -------------------
[32;1m[Board] [0m6 ||[7;1m [0m| |[7;1m [0m| |[7;1m [0m| |[7;1m [0m| || 6
[32;1m[Board] [0m  -------------------
[32;1m[Board] [0m5 || |[7;1m [0m| |[7;1m [0m| |[7;1m [0m| |[7;1m [0m|| 5
[32;1m[Board] [0m  -------------------
[32;1m[Board] [0m4 ||[7;1m [0m| |[7;1m [0m| |[7;1m [0m| |[7;1m [0m| || 4
[32;1m[Board] [0m  -------------------
[32;1m[Board] [0m3 || |[7;1m [0m| |[7;1m [0m| |[7;1m [0m| |[7;1m [0m|| 3
[32;1m[Board] [0m  -------------------
[32;1m[Board] [0m2 ||[0;1mp[0m|[0;1mp[0m|[0;1mp[0m|[0;1mp[0m|[0;1mp[0m|[0;1mp[0m|[0;1mp[0m|[0;1mp[0m|| 2
[32;1m[Board] [0m  -------------------
[32;1m[Board] [0m1 ||[0;1mr[0m|[0;1mk[0m|[0;1mb[0m|[0;1mQ[0m|[0;1mK[0m|[0;1mb[0m|[0;1mk[0m|[0;1mr[0m|| 1
[32;1m[Board] [0m  -------------------
[32;1m[Board] [0m    a b c d e f g h
[32;1m[Board] [0m
[32;1m[Referee] [0mThis is the turn of the White player...
Input file: championship/lizzie-iii-remmato-iii/history.csv
Output file: championship/lizzie-iii-remmato-iii/move.csv
We are playing as White
Move history:
8 | R N B Q K B N R 
7 | P P P P P P P P 
6 | _ _ _ _ _ _ _ _ 
5 | _ _ _ _ _ _ _ _ 
4 | _ _ _ _ _ _ _ _ 
3 | _ _ _ _ _ _ _ _ 
2 | P P P P P P P P 
1 | R N B Q K B N R 
-------------------
  | A B C D E F G H 

It is white's turn to play.
AI's move: c2c4
Move written: c2c4
[32;1m[Game] [0mPlayer's error code: 0
[32;1m[Game] [0mChecking move validity...
[32;1m[Board] [0mInitializing board...
[32;1m[Board] [0mLoading history file `championship/lizzie-iii-remmato-iii/history.csv`...
[32;1m[Board] [0mLoaded 0 move(s).
[32;1m[Board] [0mLoading move file `championship/lizzie-iii-remmato-iii/move.csv`...
[32;1m[Board] [0mWhite player is playing c2 to c4.
[32;1m[Board] [0m
[32;1m[Board] [0m    a b c d e f g h 
[32;1m[Board] [0m  -------------------
[32;1m[Board] [0m8 ||[30;1mr[0m|[30;1mk[0m|[30;1mb[0m|[30;1mQ[0m|[30;1mK[0m|[30;1mb[0m|[30;1mk[0m|[30;1mr[0m|| 8
[32;1m[Board] [0m  -------------------
[32;1m[Board] [0m7 ||[30;1mp[0m|[30;1mp[0m|[30;1mp[0m|[30;1mp[0m|[30;1mp[0m|[30;1mp[0m|[30;1mp[0m|[30;1mp[0m|| 7
[32;1m[Board] [0m  -------------------
[32;1m[Board] [0m6 ||[7;1m [0m| |[7;1m [0m| |[7;1m [0m| |[7;1m [0m| || 6
[32;1m[Board] [0m  -------------------
[32;1m[Board] [0m5 || |[7;1m [0m| |[7;1m [0m| |[7;1m [0m| |[7;1m [0m|| 5
[32;1m[Board] [0m  -------------------
[32;1m[Board] [0m4 ||[7;1m [0m| |[0;1mp[0m| |[7;1m [0m| |[7;1m [0m| || 4
[32;1m[Board] [0m  -------------------
[32;1m[Board] [0m3 || |[7;1m [0m| |[7;1m [0m| |[7;1m [0m| |[7;1m [0m|| 3
[32;1m[Board] [0m  -------------------
[32;1m[Board] [0m2 ||[0;1mp[0m|[0;1mp[0m|[7;1m [0m|[0;1mp[0m|[0;1mp[0m|[0;1mp[0m|[0;1mp[0m|[0;1mp[0m|| 2
[32;1m[Board] [0m  -------------------
[32;1m[Board] [0m1 ||[0;1mr[0m|[0;1mk[0m|[0;1mb[0m|[0;1mQ[0m|[0;1mK[0m|[0;1mb[0m|[0;1mk[0m|[0;1mr[0m|| 1
[32;1m[Board] [0m  -------------------
[32;1m[Board] [0m    a b c d e f g h
[32;1m[Board] [0m
[32;1m[Referee] [0mThis is the turn of the Black player...
Error: /data/julien/Pro/git/teaching/x/2024/remmato-iii/build/bin/../resources/openings does not exist or is not a directory
[32;1m[Game] [0mPlayer's error code: 0
[32;1m[Game] [0mChecking move validity...
[32;1m[Board] [0mInitializing board...
[32;1m[Board] [0mLoading history file `championship/lizzie-iii-remmato-iii/history.csv`...
[32;1m[Board] [0mLoaded 1 move(s).
[32;1m[Board] [0mLoading move file `championship/lizzie-iii-remmato-iii/move.csv`...
[32;1m[Board] [0mBlack player is playing e7 to e5.
[32;1m[Board] [0m
[32;1m[Board] [0m    a b c d e f g h 
[32;1m[Board] [0m  -------------------
[32;1m[Board] [0m8 ||[30;1mr[0m|[30;1mk[0m|[30;1mb[0m|[30;1mQ[0m|[30;1mK[0m|[30;1mb[0m|[30;1mk[0m|[30;1mr[0m|| 8
[32;1m[Board] [0m  -------------------
[32;1m[Board] [0m7 ||[30;1mp[0m|[30;1mp[0m|[30;1mp[0m|[30;1mp[0m| |[30;1mp[0m|[30;1mp[0m|[30;1mp[0m|| 7
[32;1m[Board] [0m  -------------------
[32;1m[Board] [0m6 ||[7;1m [0m| |[7;1m [0m| |[7;1m [0m| |[7;1m [0m| || 6
[32;1m[Board] [0m  -------------------
[32;1m[Board] [0m5 || |[7;1m [0m| |[7;1m [0m|[30;1mp[0m|[7;1m [0m| |[7;1m [0m|| 5
[32;1m[Board] [0m  -------------------
[32;1m[Board] [0m4 ||[7;1m [0m| |[0;1mp[0m| |[7;1m [0m| |[7;1m [0m| || 4
[32;1m[Board] [0m  -------------------
[32;1m[Board] [0m3 || |[7;1m [0m| |[7;1m [0m| |[7;1m [0m| |[7;1m [0m|| 3
[32;1m[Board] [0m  -------------------
[32;1m[Board] [0m2 ||[0;1mp[0m|[0;1mp[0m|[7;1m [0m|[0;1mp[0m|[0;1mp[0m|[0;1mp[0m|[0;1mp[0m|[0;1mp[0m|| 2
[32;1m[Board] [0m  -------------------
[32;1m[Board] [0m1 ||[0;1mr[0m|[0;1mk[0m|[0;1mb[0m|[0;1mQ[0m|[0;1mK[0m|[0;1mb[0m|[0;1mk[0m|[0;1mr[0m|| 1
[32;1m[Board] [0m  -------------------
[32;1m[Board] [0m    a b c d e f g h
[32;1m[Board] [0m
[32;1m[Referee] [0mThis is the turn of the White player...
Input file: championship/lizzie-iii-remmato-iii/history.csv
Output file: championship/lizzie-iii-remmato-iii/move.csv
Turn of: white
Succesful move
c2c4
8 | R N B Q K B N R 
7 | P P P P P P P P 
6 | _ _ _ _ _ _ _ _ 
5 | _ _ _ _ _ _ _ _ 
4 | _ _ P _ _ _ _ _ 
3 | _ _ _ _ _ _ _ _ 
2 | P P _ P P P P P 
1 | R N B Q K B N R 
-------------------
  | A B C D E F G H 

Turn of: black
Succesful move
e7e5
8 | R N B Q K B N R 
7 | P P P P _ P P P 
6 | _ _ _ _ _ _ _ _ 
5 | _ _ _ _ P _ _ _ 
4 | _ _ P _ _ _ _ _ 
3 | _ _ _ _ _ _ _ _ 
2 | P P _ P P P P P 
1 | R N B Q K B N R 
-------------------
  | A B C D E F G H 

We are playing as White
Move history:
c2c4
e7e5
8 | R N B Q K B N R 
7 | P P P P _ P P P 
6 | _ _ _ _ _ _ _ _ 
5 | _ _ _ _ P _ _ _ 
4 | _ _ P _ _ _ _ _ 
3 | _ _ _ _ _ _ _ _ 
2 | P P _ P P P P P 
1 | R N B Q K B N R 
-------------------
  | A B C D E F G H 

It is white's turn to play.
AI's move: d2d3
Move written: d2d3
[32;1m[Game] [0mPlayer's error code: 0
[32;1m[Game] [0mChecking move validity...
[32;1m[Board] [0mInitializing board...
[32;1m[Board] [0mLoading history file `championship/lizzie-iii-remmato-iii/history.csv`...
[32;1m[Board] [0mLoaded 2 move(s).
[32;1m[Board] [0mLoading move file `championship/lizzie-iii-remmato-iii/move.csv`...
[32;1m[Board] [0mWhite player is playing d2 to d3.
[32;1m[Board] [0m
[32;1m[Board] [0m    a b c d e f g h 
[32;1m[Board] [0m  -------------------
[32;1m[Board] [0m8 ||[30;1mr[0m|[30;1mk[0m|[30;1mb[0m|[30;1mQ[0m|[30;1mK[0m|[30;1mb[0m|[30;1mk[0m|[30;1mr[0m|| 8
[32;1m[Board] [0m  -------------------
[32;1m[Board] [0m7 ||[30;1mp[0m|[30;1mp[0m|[30;1mp[0m|[30;1mp[0m| |[30;1mp[0m|[30;1mp[0m|[30;1mp[0m|| 7
[32;1m[Board] [0m  -------------------
[32;1m[Board] [0m6 ||[7;1m [0m| |[7;1m [0m| |[7;1m [0m| |[7;1m [0m| || 6
[32;1m[Board] [0m  -------------------
[32;1m[Board] [0m5 || |[7;1m [0m| |[7;1m [0m|[30;1mp[0m|[7;1m [0m| |[7;1m [0m|| 5
[32;1m[Board] [0m  -------------------
[32;1m[Board] [0m4 ||[7;1m [0m| |[0;1mp[0m| |[7;1m [0m| |[7;1m [0m| || 4
[32;1m[Board] [0m  -------------------
[32;1m[Board] [0m3 || |[7;1m [0m| |[0;1mp[0m| |[7;1m [0m| |[7;1m [0m|| 3
[32;1m[Board] [0m  -------------------
[32;1m[Board] [0m2 ||[0;1mp[0m|[0;1mp[0m|[7;1m [0m| |[0;1mp[0m|[0;1mp[0m|[0;1mp[0m|[0;1mp[0m|| 2
[32;1m[Board] [0m  -------------------
[32;1m[Board] [0m1 ||[0;1mr[0m|[0;1mk[0m|[0;1mb[0m|[0;1mQ[0m|[0;1mK[0m|[0;1mb[0m|[0;1mk[0m|[0;1mr[0m|| 1
[32;1m[Board] [0m  -------------------
[32;1m[Board] [0m    a b c d e f g h
[32;1m[Board] [0m
[32;1m[Referee] [0mThis is the turn of the Black player...
Error: /data/julien/Pro/git/teaching/x/2024/remmato-iii/build/bin/../resources/openings does not exist or is not a directory
[32;1m[Game] [0mPlayer's error code: 0
[32;1m[Game] [0mChecking move validity...
[32;1m[Board] [0mInitializing board...
[32;1m[Board] [0mLoading history file `championship/lizzie-iii-remmato-iii/history.csv`...
[32;1m[Board] [0mLoaded 3 move(s).
[32;1m[Board] [0mLoading move file `championship/lizzie-iii-remmato-iii/move.csv`...
[32;1m[Board] [0mBlack player is playing f8 to b4.
[32;1m[Board] [0m
[32;1m[Board] [0m    a b c d e f g h 
[32;1m[Board] [0m  -------------------
[32;1m[Board] [0m8 ||[30;1mr[0m|[30;1mk[0m|[30;1mb[0m|[30;1mQ[0m|[30;1mK[0m| |[30;1mk[0m|[30;1mr[0m|| 8
[32;1m[Board] [0m  -------------------
[32;1m[Board] [0m7 ||[30;1mp[0m|[30;1mp[0m|[30;1mp[0m|[30;1mp[0m| |[30;1mp[0m|[30;1mp[0m|[30;1mp[0m|| 7
[32;1m[Board] [0m  -------------------
[32;1m[Board] [0m6 ||[7;1m [0m| |[7;1m [0m| |[7;1m [0m| |[7;1m [0m| || 6
[32;1m[Board] [0m  -------------------
[32;1m[Board] [0m5 || |[7;1m [0m| |[7;1m [0m|[30;1mp[0m|[7;1m [0m| |[7;1m [0m|| 5
[32;1m[Board] [0m  -------------------
[32;1m[Board] [0m4 ||[7;1m [0m|[30;1mb[0m|[0;1mp[0m| |[7;1m [0m| |[7;1m [0m| || 4
[32;1m[Board] [0m  -------------------
[32;1m[Board] [0m3 || |[7;1m [0m| |[0;1mp[0m| |[7;1m [0m| |[7;1m [0m|| 3
[32;1m[Board] [0m  -------------------
[32;1m[Board] [0m2 ||[0;1mp[0m|[0;1mp[0m|[7;1m [0m| |[0;1mp[0m|[0;1mp[0m|[0;1mp[0m|[0;1mp[0m|| 2
[32;1m[Board] [0m  -------------------
[32;1m[Board] [0m1 ||[0;1mr[0m|[0;1mk[0m|[0;1mb[0m|[0;1mQ[0m|[0;1mK[0m|[0;1mb[0m|[0;1mk[0m|[0;1mr[0m|| 1
[32;1m[Board] [0m  -------------------
[32;1m[Board] [0m    a b c d e f g h
[32;1m[Board] [0m
[32;1m[Referee] [0mThis is the turn of the White player...
[32;1m[Board] [0m[33;1m[WARNING][0m [5;1mWhite King in check![0m
[32;1m[Board] [0m[33;1m[WARNING][0m    Threatened by Black Bishop (b4)
Input file: championship/lizzie-iii-remmato-iii/history.csv
Output file: championship/lizzie-iii-remmato-iii/move.csv
Turn of: white
Succesful move
c2c4
8 | R N B Q K B N R 
7 | P P P P P P P P 
6 | _ _ _ _ _ _ _ _ 
5 | _ _ _ _ _ _ _ _ 
4 | _ _ P _ _ _ _ _ 
3 | _ _ _ _ _ _ _ _ 
2 | P P _ P P P P P 
1 | R N B Q K B N R 
-------------------
  | A B C D E F G H 

Turn of: black
Succesful move
e7e5
8 | R N B Q K B N R 
7 | P P P P _ P P P 
6 | _ _ _ _ _ _ _ _ 
5 | _ _ _ _ P _ _ _ 
4 | _ _ P _ _ _ _ _ 
3 | _ _ _ _ _ _ _ _ 
2 | P P _ P P P P P 
1 | R N B Q K B N R 
-------------------
  | A B C D E F G H 

Turn of: white
Succesful move
d2d3
8 | R N B Q K B N R 
7 | P P P P _ P P P 
6 | _ _ _ _ _ _ _ _ 
5 | _ _ _ _ P _ _ _ 
4 | _ _ P _ _ _ _ _ 
3 | _ _ _ P _ _ _ _ 
2 | P P _ _ P P P P 
1 | R N B Q K B N R 
-------------------
  | A B C D E F G H 

Turn of: black
Succesful move
f8b4
8 | R N B Q K _ N R 
7 | P P P P _ P P P 
6 | _ _ _ _ _ _ _ _ 
5 | _ _ _ _ P _ _ _ 
4 | _ B P _ _ _ _ _ 
3 | _ _ _ P _ _ _ _ 
2 | P P _ _ P P P P 
1 | R N B Q K B N R 
-------------------
  | A B C D E F G H 

We are playing as White
Move history:
c2c4
e7e5
d2d3
f8b4
8 | R N B Q K _ N R 
7 | P P P P _ P P P 
6 | _ _ _ _ _ _ _ _ 
5 | _ _ _ _ P _ _ _ 
4 | _ B P _ _ _ _ _ 
3 | _ _ _ P _ _ _ _ 
2 | P P _ _ P P P P 
1 | R N B Q K B N R 
-------------------
  | A B C D E F G H 

It is white's turn to play.
AI's move: b1d2
Move written: b1d2
[32;1m[Game] [0mPlayer's error code: 0
[32;1m[Game] [0mChecking move validity...
[32;1m[Board] [0mInitializing board...
[32;1m[Board] [0mLoading history file `championship/lizzie-iii-remmato-iii/history.csv`...
[32;1m[Board] [0mLoaded 4 move(s).
[32;1m[Board] [0mLoading move file `championship/lizzie-iii-remmato-iii/move.csv`...
[32;1m[Board] [0mWhite player is playing b1 to d2.
[32;1m[Board] [0m
[32;1m[Board] [0m    a b c d e f g h 
[32;1m[Board] [0m  -------------------
[32;1m[Board] [0m8 ||[30;1mr[0m|[30;1mk[0m|[30;1mb[0m|[30;1mQ[0m|[30;1mK[0m| |[30;1mk[0m|[30;1mr[0m|| 8
[32;1m[Board] [0m  -------------------
[32;1m[Board] [0m7 ||[30;1mp[0m|[30;1mp[0m|[30;1mp[0m|[30;1mp[0m| |[30;1mp[0m|[30;1mp[0m|[30;1mp[0m|| 7
[32;1m[Board] [0m  -------------------
[32;1m[Board] [0m6 ||[7;1m [0m| |[7;1m [0m| |[7;1m [0m| |[7;1m [0m| || 6
[32;1m[Board] [0m  -------------------
[32;1m[Board] [0m5 || |[7;1m [0m| |[7;1m [0m|[30;1mp[0m|[7;1m [0m| |[7;1m [0m|| 5
[32;1m[Board] [0m  -------------------
[32;1m[Board] [0m4 ||[7;1m [0m|[30;1mb[0m|[0;1mp[0m| |[7;1m [0m| |[7;1m [0m| || 4
[32;1m[Board] [0m  -------------------
[32;1m[Board] [0m3 || |[7;1m [0m| |[0;1mp[0m| |[7;1m [0m| |[7;1m [0m|| 3
[32;1m[Board] [0m  -------------------
[32;1m[Board] [0m2 ||[0;1mp[0m|[0;1mp[0m|[7;1m [0m|[0;1mk[0m|[0;1mp[0m|[0;1mp[0m|[0;1mp[0m|[0;1mp[0m|| 2
[32;1m[Board] [0m  -------------------
[32;1m[Board] [0m1 ||[0;1mr[0m|[7;1m [0m|[0;1mb[0m|[0;1mQ[0m|[0;1mK[0m|[0;1mb[0m|[0;1mk[0m|[0;1mr[0m|| 1
[32;1m[Board] [0m  -------------------
[32;1m[Board] [0m    a b c d e f g h
[32;1m[Board] [0m
[32;1m[Referee] [0mThis is the turn of the Black player...
Error: /data/julien/Pro/git/teaching/x/2024/remmato-iii/build/bin/../resources/openings does not exist or is not a directory
[32;1m[Game] [0mPlayer's error code: 0
[32;1m[Game] [0mChecking move validity...
[32;1m[Board] [0mInitializing board...
[32;1m[Board] [0mLoading history file `championship/lizzie-iii-remmato-iii/history.csv`...
[32;1m[Board] [0mLoaded 5 move(s).
[32;1m[Board] [0mLoading move file `championship/lizzie-iii-remmato-iii/move.csv`...
[32;1m[Board] [0mBlack player is playing e5 to e4.
[32;1m[Board] [0m
[32;1m[Board] [0m    a b c d e f g h 
[32;1m[Board] [0m  -------------------
[32;1m[Board] [0m8 ||[30;1mr[0m|[30;1mk[0m|[30;1mb[0m|[30;1mQ[0m|[30;1mK[0m| |[30;1mk[0m|[30;1mr[0m|| 8
[32;1m[Board] [0m  -------------------
[32;1m[Board] [0m7 ||[30;1mp[0m|[30;1mp[0m|[30;1mp[0m|[30;1mp[0m| |[30;1mp[0m|[30;1mp[0m|[30;1mp[0m|| 7
[32;1m[Board] [0m  -------------------
[32;1m[Board] [0m6 ||[7;1m [0m| |[7;1m [0m| |[7;1m [0m| |[7;1m [0m| || 6
[32;1m[Board] [0m  -------------------
[32;1m[Board] [0m5 || |[7;1m [0m| |[7;1m [0m| |[7;1m [0m| |[7;1m [0m|| 5
[32;1m[Board] [0m  -------------------
[32;1m[Board] [0m4 ||[7;1m [0m|[30;1mb[0m|[0;1mp[0m| |[30;1mp[0m| |[7;1m [0m| || 4
[32;1m[Board] [0m  -------------------
[32;1m[Board] [0m3 || |[7;1m [0m| |[0;1mp[0m| |[7;1m [0m| |[7;1m [0m|| 3
[32;1m[Board] [0m  -------------------
[32;1m[Board] [0m2 ||[0;1mp[0m|[0;1mp[0m|[7;1m [0m|[0;1mk[0m|[0;1mp[0m|[0;1mp[0m|[0;1mp[0m|[0;1mp[0m|| 2
[32;1m[Board] [0m  -------------------
[32;1m[Board] [0m1 ||[0;1mr[0m|[7;1m [0m|[0;1mb[0m|[0;1mQ[0m|[0;1mK[0m|[0;1mb[0m|[0;1mk[0m|[0;1mr[0m|| 1
[32;1m[Board] [0m  -------------------
[32;1m[Board] [0m    a b c d e f g h
[32;1m[Board] [0m
[32;1m[Referee] [0mThis is the turn of the White player...
Input file: championship/lizzie-iii-remmato-iii/history.csv
Output file: championship/lizzie-iii-remmato-iii/move.csv
Turn of: white
Succesful move
c2c4
8 | R N B Q K B N R 
7 | P P P P P P P P 
6 | _ _ _ _ _ _ _ _ 
5 | _ _ _ _ _ _ _ _ 
4 | _ _ P _ _ _ _ _ 
3 | _ _ _ _ _ _ _ _ 
2 | P P _ P P P P P 
1 | R N B Q K B N R 
-------------------
  | A B C D E F G H 

Turn of: black
Succesful move
e7e5
8 | R N B Q K B N R 
7 | P P P P _ P P P 
6 | _ _ _ _ _ _ _ _ 
5 | _ _ _ _ P _ _ _ 
4 | _ _ P _ _ _ _ _ 
3 | _ _ _ _ _ _ _ _ 
2 | P P _ P P P P P 
1 | R N B Q K B N R 
-------------------
  | A B C D E F G H 

Turn of: white
Succesful move
d2d3
8 | R N B Q K B N R 
7 | P P P P _ P P P 
6 | _ _ _ _ _ _ _ _ 
5 | _ _ _ _ P _ _ _ 
4 | _ _ P _ _ _ _ _ 
3 | _ _ _ P _ _ _ _ 
2 | P P _ _ P P P P 
1 | R N B Q K B N R 
-------------------
  | A B C D E F G H 

Turn of: black
Succesful move
f8b4
8 | R N B Q K _ N R 
7 | P P P P _ P P P 
6 | _ _ _ _ _ _ _ _ 
5 | _ _ _ _ P _ _ _ 
4 | _ B P _ _ _ _ _ 
3 | _ _ _ P _ _ _ _ 
2 | P P _ _ P P P P 
1 | R N B Q K B N R 
-------------------
  | A B C D E F G H 

Turn of: white
Succesful move
b1d2
8 | R N B Q K _ N R 
7 | P P P P _ P P P 
6 | _ _ _ _ _ _ _ _ 
5 | _ _ _ _ P _ _ _ 
4 | _ B P _ _ _ _ _ 
3 | _ _ _ P _ _ _ _ 
2 | P P _ N P P P P 
1 | R _ B Q K B N R 
-------------------
  | A B C D E F G H 

Turn of: black
Succesful move
e5e4
8 | R N B Q K _ N R 
7 | P P P P _ P P P 
6 | _ _ _ _ _ _ _ _ 
5 | _ _ _ _ _ _ _ _ 
4 | _ B P _ P _ _ _ 
3 | _ _ _ P _ _ _ _ 
2 | P P _ N P P P P 
1 | R _ B Q K B N R 
-------------------
  | A B C D E F G H 

We are playing as White
Move history:
c2c4
e7e5
d2d3
f8b4
b1d2
e5e4
8 | R N B Q K _ N R 
7 | P P P P _ P P P 
6 | _ _ _ _ _ _ _ _ 
5 | _ _ _ _ _ _ _ _ 
4 | _ B P _ P _ _ _ 
3 | _ _ _ P _ _ _ _ 
2 | P P _ N P P P P 
1 | R _ B Q K B N R 
-------------------
  | A B C D E F G H 

It is white's turn to play.
AI's move: d1b3
Move written: d1b3
[32;1m[Game] [0mPlayer's error code: 0
[32;1m[Game] [0mChecking move validity...
[32;1m[Board] [0mInitializing board...
[32;1m[Board] [0mLoading history file `championship/lizzie-iii-remmato-iii/history.csv`...
[32;1m[Board] [0mLoaded 6 move(s).
[32;1m[Board] [0mLoading move file `championship/lizzie-iii-remmato-iii/move.csv`...
[32;1m[Board] [0mWhite player is playing d1 to b3.
[32;1m[Board] [0m
[32;1m[Board] [0m    a b c d e f g h 
[32;1m[Board] [0m  -------------------
[32;1m[Board] [0m8 ||[30;1mr[0m|[30;1mk[0m|[30;1mb[0m|[30;1mQ[0m|[30;1mK[0m| |[30;1mk[0m|[30;1mr[0m|| 8
[32;1m[Board] [0m  -------------------
[32;1m[Board] [0m7 ||[30;1mp[0m|[30;1mp[0m|[30;1mp[0m|[30;1mp[0m| |[30;1mp[0m|[30;1mp[0m|[30;1mp[0m|| 7
[32;1m[Board] [0m  -------------------
[32;1m[Board] [0m6 ||[7;1m [0m| |[7;1m [0m| |[7;1m [0m| |[7;1m [0m| || 6
[32;1m[Board] [0m  -------------------
[32;1m[Board] [0m5 || |[7;1m [0m| |[7;1m [0m| |[7;1m [0m| |[7;1m [0m|| 5
[32;1m[Board] [0m  -------------------
[32;1m[Board] [0m4 ||[7;1m [0m|[30;1mb[0m|[0;1mp[0m| |[30;1mp[0m| |[7;1m [0m| || 4
[32;1m[Board] [0m  -------------------
[32;1m[Board] [0m3 || |[0;1mQ[0m| |[0;1mp[0m| |[7;1m [0m| |[7;1m [0m|| 3
[32;1m[Board] [0m  -------------------
[32;1m[Board] [0m2 ||[0;1mp[0m|[0;1mp[0m|[7;1m [0m|[0;1mk[0m|[0;1mp[0m|[0;1mp[0m|[0;1mp[0m|[0;1mp[0m|| 2
[32;1m[Board] [0m  -------------------
[32;1m[Board] [0m1 ||[0;1mr[0m|[7;1m [0m|[0;1mb[0m|[7;1m [0m|[0;1mK[0m|[0;1mb[0m|[0;1mk[0m|[0;1mr[0m|| 1
[32;1m[Board] [0m  -------------------
[32;1m[Board] [0m    a b c d e f g h
[32;1m[Board] [0m
[32;1m[Referee] [0mThis is the turn of the Black player...
Error: /data/julien/Pro/git/teaching/x/2024/remmato-iii/build/bin/../resources/openings does not exist or is not a directory
[32;1m[Game] [0mPlayer's error code: 0
[32;1m[Game] [0mChecking move validity...
[32;1m[Board] [0mInitializing board...
[32;1m[Board] [0mLoading history file `championship/lizzie-iii-remmato-iii/history.csv`...
[32;1m[Board] [0mLoaded 7 move(s).
[32;1m[Board] [0mLoading move file `championship/lizzie-iii-remmato-iii/move.csv`...
[32;1m[Board] [0mBlack player is playing e4 to e3.
[32;1m[Board] [0m
[32;1m[Board] [0m    a b c d e f g h 
[32;1m[Board] [0m  -------------------
[32;1m[Board] [0m8 ||[30;1mr[0m|[30;1mk[0m|[30;1mb[0m|[30;1mQ[0m|[30;1mK[0m| |[30;1mk[0m|[30;1mr[0m|| 8
[32;1m[Board] [0m  -------------------
[32;1m[Board] [0m7 ||[30;1mp[0m|[30;1mp[0m|[30;1mp[0m|[30;1mp[0m| |[30;1mp[0m|[30;1mp[0m|[30;1mp[0m|| 7
[32;1m[Board] [0m  -------------------
[32;1m[Board] [0m6 ||[7;1m [0m| |[7;1m [0m| |[7;1m [0m| |[7;1m [0m| || 6
[32;1m[Board] [0m  -------------------
[32;1m[Board] [0m5 || |[7;1m [0m| |[7;1m [0m| |[7;1m [0m| |[7;1m [0m|| 5
[32;1m[Board] [0m  -------------------
[32;1m[Board] [0m4 ||[7;1m [0m|[30;1mb[0m|[0;1mp[0m| |[7;1m [0m| |[7;1m [0m| || 4
[32;1m[Board] [0m  -------------------
[32;1m[Board] [0m3 || |[0;1mQ[0m| |[0;1mp[0m|[30;1mp[0m|[7;1m [0m| |[7;1m [0m|| 3
[32;1m[Board] [0m  -------------------
[32;1m[Board] [0m2 ||[0;1mp[0m|[0;1mp[0m|[7;1m [0m|[0;1mk[0m|[0;1mp[0m|[0;1mp[0m|[0;1mp[0m|[0;1mp[0m|| 2
[32;1m[Board] [0m  -------------------
[32;1m[Board] [0m1 ||[0;1mr[0m|[7;1m [0m|[0;1mb[0m|[7;1m [0m|[0;1mK[0m|[0;1mb[0m|[0;1mk[0m|[0;1mr[0m|| 1
[32;1m[Board] [0m  -------------------
[32;1m[Board] [0m    a b c d e f g h
[32;1m[Board] [0m
[32;1m[Referee] [0mThis is the turn of the White player...
Input file: championship/lizzie-iii-remmato-iii/history.csv
Output file: championship/lizzie-iii-remmato-iii/move.csv
Turn of: white
Succesful move
c2c4
8 | R N B Q K B N R 
7 | P P P P P P P P 
6 | _ _ _ _ _ _ _ _ 
5 | _ _ _ _ _ _ _ _ 
4 | _ _ P _ _ _ _ _ 
3 | _ _ _ _ _ _ _ _ 
2 | P P _ P P P P P 
1 | R N B Q K B N R 
-------------------
  | A B C D E F G H 

Turn of: black
Succesful move
e7e5
8 | R N B Q K B N R 
7 | P P P P _ P P P 
6 | _ _ _ _ _ _ _ _ 
5 | _ _ _ _ P _ _ _ 
4 | _ _ P _ _ _ _ _ 
3 | _ _ _ _ _ _ _ _ 
2 | P P _ P P P P P 
1 | R N B Q K B N R 
-------------------
  | A B C D E F G H 

Turn of: white
Succesful move
d2d3
8 | R N B Q K B N R 
7 | P P P P _ P P P 
6 | _ _ _ _ _ _ _ _ 
5 | _ _ _ _ P _ _ _ 
4 | _ _ P _ _ _ _ _ 
3 | _ _ _ P _ _ _ _ 
2 | P P _ _ P P P P 
1 | R N B Q K B N R 
-------------------
  | A B C D E F G H 

Turn of: black
Succesful move
f8b4
8 | R N B Q K _ N R 
7 | P P P P _ P P P 
6 | _ _ _ _ _ _ _ _ 
5 | _ _ _ _ P _ _ _ 
4 | _ B P _ _ _ _ _ 
3 | _ _ _ P _ _ _ _ 
2 | P P _ _ P P P P 
1 | R N B Q K B N R 
-------------------
  | A B C D E F G H 

Turn of: white
Succesful move
b1d2
8 | R N B Q K _ N R 
7 | P P P P _ P P P 
6 | _ _ _ _ _ _ _ _ 
5 | _ _ _ _ P _ _ _ 
4 | _ B P _ _ _ _ _ 
3 | _ _ _ P _ _ _ _ 
2 | P P _ N P P P P 
1 | R _ B Q K B N R 
-------------------
  | A B C D E F G H 

Turn of: black
Succesful move
e5e4
8 | R N B Q K _ N R 
7 | P P P P _ P P P 
6 | _ _ _ _ _ _ _ _ 
5 | _ _ _ _ _ _ _ _ 
4 | _ B P _ P _ _ _ 
3 | _ _ _ P _ _ _ _ 
2 | P P _ N P P P P 
1 | R _ B Q K B N R 
-------------------
  | A B C D E F G H 

Turn of: white
Succesful move
d1b3
8 | R N B Q K _ N R 
7 | P P P P _ P P P 
6 | _ _ _ _ _ _ _ _ 
5 | _ _ _ _ _ _ _ _ 
4 | _ B P _ P _ _ _ 
3 | _ Q _ P _ _ _ _ 
2 | P P _ N P P P P 
1 | R _ B _ K B N R 
-------------------
  | A B C D E F G H 

Turn of: black
Succesful move
e4e3
8 | R N B Q K _ N R 
7 | P P P P _ P P P 
6 | _ _ _ _ _ _ _ _ 
5 | _ _ _ _ _ _ _ _ 
4 | _ B P _ _ _ _ _ 
3 | _ Q _ P P _ _ _ 
2 | P P _ N P P P P 
1 | R _ B _ K B N R 
-------------------
  | A B C D E F G H 

We are playing as White
Move history:
c2c4
e7e5
d2d3
f8b4
b1d2
e5e4
d1b3
e4e3
8 | R N B Q K _ N R 
7 | P P P P _ P P P 
6 | _ _ _ _ _ _ _ _ 
5 | _ _ _ _ _ _ _ _ 
4 | _ B P _ _ _ _ _ 
3 | _ Q _ P P _ _ _ 
2 | P P _ N P P P P 
1 | R _ B _ K B N R 
-------------------
  | A B C D E F G H 

It is white's turn to play.
AI's move: f2f4
Move written: f2f4
[32;1m[Game] [0mPlayer's error code: 0
[32;1m[Game] [0mChecking move validity...
[32;1m[Board] [0mInitializing board...
[32;1m[Board] [0mLoading history file `championship/lizzie-iii-remmato-iii/history.csv`...
[32;1m[Board] [0mLoaded 8 move(s).
[32;1m[Board] [0mLoading move file `championship/lizzie-iii-remmato-iii/move.csv`...
[32;1m[Board] [0mWhite player is playing f2 to f4.
[32;1m[Board] [0m
[32;1m[Board] [0m    a b c d e f g h 
[32;1m[Board] [0m  -------------------
[32;1m[Board] [0m8 ||[30;1mr[0m|[30;1mk[0m|[30;1mb[0m|[30;1mQ[0m|[30;1mK[0m| |[30;1mk[0m|[30;1mr[0m|| 8
[32;1m[Board] [0m  -------------------
[32;1m[Board] [0m7 ||[30;1mp[0m|[30;1mp[0m|[30;1mp[0m|[30;1mp[0m| |[30;1mp[0m|[30;1mp[0m|[30;1mp[0m|| 7
[32;1m[Board] [0m  -------------------
[32;1m[Board] [0m6 ||[7;1m [0m| |[7;1m [0m| |[7;1m [0m| |[7;1m [0m| || 6
[32;1m[Board] [0m  -------------------
[32;1m[Board] [0m5 || |[7;1m [0m| |[7;1m [0m| |[7;1m [0m| |[7;1m [0m|| 5
[32;1m[Board] [0m  -------------------
[32;1m[Board] [0m4 ||[7;1m [0m|[30;1mb[0m|[0;1mp[0m| |[7;1m [0m|[0;1mp[0m|[7;1m [0m| || 4
[32;1m[Board] [0m  -------------------
[32;1m[Board] [0m3 || |[0;1mQ[0m| |[0;1mp[0m|[30;1mp[0m|[7;1m [0m| |[7;1m [0m|| 3
[32;1m[Board] [0m  -------------------
[32;1m[Board] [0m2 ||[0;1mp[0m|[0;1mp[0m|[7;1m [0m|[0;1mk[0m|[0;1mp[0m| |[0;1mp[0m|[0;1mp[0m|| 2
[32;1m[Board] [0m  -------------------
[32;1m[Board] [0m1 ||[0;1mr[0m|[7;1m [0m|[0;1mb[0m|[7;1m [0m|[0;1mK[0m|[0;1mb[0m|[0;1mk[0m|[0;1mr[0m|| 1
[32;1m[Board] [0m  -------------------
[32;1m[Board] [0m    a b c d e f g h
[32;1m[Board] [0m
[32;1m[Referee] [0mThis is the turn of the Black player...
Error: /data/julien/Pro/git/teaching/x/2024/remmato-iii/build/bin/../resources/openings does not exist or is not a directory
[32;1m[Game] [0mPlayer's error code: 0
[32;1m[Game] [0mChecking move validity...
[32;1m[Board] [0mInitializing board...
[32;1m[Board] [0mLoading history file `championship/lizzie-iii-remmato-iii/history.csv`...
[32;1m[Board] [0mLoaded 9 move(s).
[32;1m[Board] [0mLoading move file `championship/lizzie-iii-remmato-iii/move.csv`...
[32;1m[Board] [0mBlack player is playing d8 to h4.
[32;1m[Board] [0m
[32;1m[Board] [0m    a b c d e f g h 
[32;1m[Board] [0m  -------------------
[32;1m[Board] [0m8 ||[30;1mr[0m|[30;1mk[0m|[30;1mb[0m| |[30;1mK[0m| |[30;1mk[0m|[30;1mr[0m|| 8
[32;1m[Board] [0m  -------------------
[32;1m[Board] [0m7 ||[30;1mp[0m|[30;1mp[0m|[30;1mp[0m|[30;1mp[0m| |[30;1mp[0m|[30;1mp[0m|[30;1mp[0m|| 7
[32;1m[Board] [0m  -------------------
[32;1m[Board] [0m6 ||[7;1m [0m| |[7;1m [0m| |[7;1m [0m| |[7;1m [0m| || 6
[32;1m[Board] [0m  -------------------
[32;1m[Board] [0m5 || |[7;1m [0m| |[7;1m [0m| |[7;1m [0m| |[7;1m [0m|| 5
[32;1m[Board] [0m  -------------------
[32;1m[Board] [0m4 ||[7;1m [0m|[30;1mb[0m|[0;1mp[0m| |[7;1m [0m|[0;1mp[0m|[7;1m [0m|[30;1mQ[0m|| 4
[32;1m[Board] [0m  -------------------
[32;1m[Board] [0m3 || |[0;1mQ[0m| |[0;1mp[0m|[30;1mp[0m|[7;1m [0m| |[7;1m [0m|| 3
[32;1m[Board] [0m  -------------------
[32;1m[Board] [0m2 ||[0;1mp[0m|[0;1mp[0m|[7;1m [0m|[0;1mk[0m|[0;1mp[0m| |[0;1mp[0m|[0;1mp[0m|| 2
[32;1m[Board] [0m  -------------------
[32;1m[Board] [0m1 ||[0;1mr[0m|[7;1m [0m|[0;1mb[0m|[7;1m [0m|[0;1mK[0m|[0;1mb[0m|[0;1mk[0m|[0;1mr[0m|| 1
[32;1m[Board] [0m  -------------------
[32;1m[Board] [0m    a b c d e f g h
[32;1m[Board] [0m
[32;1m[Referee] [0mThis is the turn of the White player...
[32;1m[Board] [0m[33;1m[WARNING][0m [5;1mWhite King in check![0m
[32;1m[Board] [0m[33;1m[WARNING][0m    Threatened by Black Queen (h4)
Input file: championship/lizzie-iii-remmato-iii/history.csv
Output file: championship/lizzie-iii-remmato-iii/move.csv
Turn of: white
Succesful move
c2c4
8 | R N B Q K B N R 
7 | P P P P P P P P 
6 | _ _ _ _ _ _ _ _ 
5 | _ _ _ _ _ _ _ _ 
4 | _ _ P _ _ _ _ _ 
3 | _ _ _ _ _ _ _ _ 
2 | P P _ P P P P P 
1 | R N B Q K B N R 
-------------------
  | A B C D E F G H 

Turn of: black
Succesful move
e7e5
8 | R N B Q K B N R 
7 | P P P P _ P P P 
6 | _ _ _ _ _ _ _ _ 
5 | _ _ _ _ P _ _ _ 
4 | _ _ P _ _ _ _ _ 
3 | _ _ _ _ _ _ _ _ 
2 | P P _ P P P P P 
1 | R N B Q K B N R 
-------------------
  | A B C D E F G H 

Turn of: white
Succesful move
d2d3
8 | R N B Q K B N R 
7 | P P P P _ P P P 
6 | _ _ _ _ _ _ _ _ 
5 | _ _ _ _ P _ _ _ 
4 | _ _ P _ _ _ _ _ 
3 | _ _ _ P _ _ _ _ 
2 | P P _ _ P P P P 
1 | R N B Q K B N R 
-------------------
  | A B C D E F G H 

Turn of: black
Succesful move
f8b4
8 | R N B Q K _ N R 
7 | P P P P _ P P P 
6 | _ _ _ _ _ _ _ _ 
5 | _ _ _ _ P _ _ _ 
4 | _ B P _ _ _ _ _ 
3 | _ _ _ P _ _ _ _ 
2 | P P _ _ P P P P 
1 | R N B Q K B N R 
-------------------
  | A B C D E F G H 

Turn of: white
Succesful move
b1d2
8 | R N B Q K _ N R 
7 | P P P P _ P P P 
6 | _ _ _ _ _ _ _ _ 
5 | _ _ _ _ P _ _ _ 
4 | _ B P _ _ _ _ _ 
3 | _ _ _ P _ _ _ _ 
2 | P P _ N P P P P 
1 | R _ B Q K B N R 
-------------------
  | A B C D E F G H 

Turn of: black
Succesful move
e5e4
8 | R N B Q K _ N R 
7 | P P P P _ P P P 
6 | _ _ _ _ _ _ _ _ 
5 | _ _ _ _ _ _ _ _ 
4 | _ B P _ P _ _ _ 
3 | _ _ _ P _ _ _ _ 
2 | P P _ N P P P P 
1 | R _ B Q K B N R 
-------------------
  | A B C D E F G H 

Turn of: white
Succesful move
d1b3
8 | R N B Q K _ N R 
7 | P P P P _ P P P 
6 | _ _ _ _ _ _ _ _ 
5 | _ _ _ _ _ _ _ _ 
4 | _ B P _ P _ _ _ 
3 | _ Q _ P _ _ _ _ 
2 | P P _ N P P P P 
1 | R _ B _ K B N R 
-------------------
  | A B C D E F G H 

Turn of: black
Succesful move
e4e3
8 | R N B Q K _ N R 
7 | P P P P _ P P P 
6 | _ _ _ _ _ _ _ _ 
5 | _ _ _ _ _ _ _ _ 
4 | _ B P _ _ _ _ _ 
3 | _ Q _ P P _ _ _ 
2 | P P _ N P P P P 
1 | R _ B _ K B N R 
-------------------
  | A B C D E F G H 

Turn of: white
Succesful move
f2f4
8 | R N B Q K _ N R 
7 | P P P P _ P P P 
6 | _ _ _ _ _ _ _ _ 
5 | _ _ _ _ _ _ _ _ 
4 | _ B P _ _ P _ _ 
3 | _ Q _ P P _ _ _ 
2 | P P _ N P _ P P 
1 | R _ B _ K B N R 
-------------------
  | A B C D E F G H 

Turn of: black
Succesful move
d8h4
8 | R N B _ K _ N R 
7 | P P P P _ P P P 
6 | _ _ _ _ _ _ _ _ 
5 | _ _ _ _ _ _ _ _ 
4 | _ B P _ _ P _ Q 
3 | _ Q _ P P _ _ _ 
2 | P P _ N P _ P P 
1 | R _ B _ K B N R 
-------------------
  | A B C D E F G H 

We are playing as White
Move history:
c2c4
e7e5
d2d3
f8b4
b1d2
e5e4
d1b3
e4e3
f2f4
d8h4
8 | R N B _ K _ N R 
7 | P P P P _ P P P 
6 | _ _ _ _ _ _ _ _ 
5 | _ _ _ _ _ _ _ _ 
4 | _ B P _ _ P _ Q 
3 | _ Q _ P P _ _ _ 
2 | P P _ N P _ P P 
1 | R _ B _ K B N R 
-------------------
  | A B C D E F G H 

It is white's turn to play.
AI's move: e1d1
Move written: e1d1
[32;1m[Game] [0mPlayer's error code: 0
[32;1m[Game] [0mChecking move validity...
[32;1m[Board] [0mInitializing board...
[32;1m[Board] [0mLoading history file `championship/lizzie-iii-remmato-iii/history.csv`...
[32;1m[Board] [0mLoaded 10 move(s).
[32;1m[Board] [0mLoading move file `championship/lizzie-iii-remmato-iii/move.csv`...
[32;1m[Board] [0mWhite player is playing e1 to d1.
[32;1m[Board] [0m
[32;1m[Board] [0m    a b c d e f g h 
[32;1m[Board] [0m  -------------------
[32;1m[Board] [0m8 ||[30;1mr[0m|[30;1mk[0m|[30;1mb[0m| |[30;1mK[0m| |[30;1mk[0m|[30;1mr[0m|| 8
[32;1m[Board] [0m  -------------------
[32;1m[Board] [0m7 ||[30;1mp[0m|[30;1mp[0m|[30;1mp[0m|[30;1mp[0m| |[30;1mp[0m|[30;1mp[0m|[30;1mp[0m|| 7
[32;1m[Board] [0m  -------------------
[32;1m[Board] [0m6 ||[7;1m [0m| |[7;1m [0m| |[7;1m [0m| |[7;1m [0m| || 6
[32;1m[Board] [0m  -------------------
[32;1m[Board] [0m5 || |[7;1m [0m| |[7;1m [0m| |[7;1m [0m| |[7;1m [0m|| 5
[32;1m[Board] [0m  -------------------
[32;1m[Board] [0m4 ||[7;1m [0m|[30;1mb[0m|[0;1mp[0m| |[7;1m [0m|[0;1mp[0m|[7;1m [0m|[30;1mQ[0m|| 4
[32;1m[Board] [0m  -------------------
[32;1m[Board] [0m3 || |[0;1mQ[0m| |[0;1mp[0m|[30;1mp[0m|[7;1m [0m| |[7;1m [0m|| 3
[32;1m[Board] [0m  -------------------
[32;1m[Board] [0m2 ||[0;1mp[0m|[0;1mp[0m|[7;1m [0m|[0;1mk[0m|[0;1mp[0m| |[0;1mp[0m|[0;1mp[0m|| 2
[32;1m[Board] [0m  -------------------
[32;1m[Board] [0m1 ||[0;1mr[0m|[7;1m [0m|[0;1mb[0m|[0;1mK[0m| |[0;1mb[0m|[0;1mk[0m|[0;1mr[0m|| 1
[32;1m[Board] [0m  -------------------
[32;1m[Board] [0m    a b c d e f g h
[32;1m[Board] [0m
[32;1m[Referee] [0mThis is the turn of the Black player...
Error: /data/julien/Pro/git/teaching/x/2024/remmato-iii/build/bin/../resources/openings does not exist or is not a directory
[32;1m[Game] [0mPlayer's error code: 0
[32;1m[Game] [0mChecking move validity...
[32;1m[Board] [0mInitializing board...
[32;1m[Board] [0mLoading history file `championship/lizzie-iii-remmato-iii/history.csv`...
[32;1m[Board] [0mLoaded 11 move(s).
[32;1m[Board] [0mLoading move file `championship/lizzie-iii-remmato-iii/move.csv`...
[32;1m[Board] [0mBlack player is playing b4 to a5.
[32;1m[Board] [0m
[32;1m[Board] [0m    a b c d e f g h 
[32;1m[Board] [0m  -------------------
[32;1m[Board] [0m8 ||[30;1mr[0m|[30;1mk[0m|[30;1mb[0m| |[30;1mK[0m| |[30;1mk[0m|[30;1mr[0m|| 8
[32;1m[Board] [0m  -------------------
[32;1m[Board] [0m7 ||[30;1mp[0m|[30;1mp[0m|[30;1mp[0m|[30;1mp[0m| |[30;1mp[0m|[30;1mp[0m|[30;1mp[0m|| 7
[32;1m[Board] [0m  -------------------
[32;1m[Board] [0m6 ||[7;1m [0m| |[7;1m [0m| |[7;1m [0m| |[7;1m [0m| || 6
[32;1m[Board] [0m  -------------------
[32;1m[Board] [0m5 ||[30;1mb[0m|[7;1m [0m| |[7;1m [0m| |[7;1m [0m| |[7;1m [0m|| 5
[32;1m[Board] [0m  -------------------
[32;1m[Board] [0m4 ||[7;1m [0m| |[0;1mp[0m| |[7;1m [0m|[0;1mp[0m|[7;1m [0m|[30;1mQ[0m|| 4
[32;1m[Board] [0m  -------------------
[32;1m[Board] [0m3 || |[0;1mQ[0m| |[0;1mp[0m|[30;1mp[0m|[7;1m [0m| |[7;1m [0m|| 3
[32;1m[Board] [0m  -------------------
[32;1m[Board] [0m2 ||[0;1mp[0m|[0;1mp[0m|[7;1m [0m|[0;1mk[0m|[0;1mp[0m| |[0;1mp[0m|[0;1mp[0m|| 2
[32;1m[Board] [0m  -------------------
[32;1m[Board] [0m1 ||[0;1mr[0m|[7;1m [0m|[0;1mb[0m|[0;1mK[0m| |[0;1mb[0m|[0;1mk[0m|[0;1mr[0m|| 1
[32;1m[Board] [0m  -------------------
[32;1m[Board] [0m    a b c d e f g h
[32;1m[Board] [0m
[32;1m[Referee] [0mThis is the turn of the White player...
Input file: championship/lizzie-iii-remmato-iii/history.csv
Output file: championship/lizzie-iii-remmato-iii/move.csv
Turn of: white
Succesful move
c2c4
8 | R N B Q K B N R 
7 | P P P P P P P P 
6 | _ _ _ _ _ _ _ _ 
5 | _ _ _ _ _ _ _ _ 
4 | _ _ P _ _ _ _ _ 
3 | _ _ _ _ _ _ _ _ 
2 | P P _ P P P P P 
1 | R N B Q K B N R 
-------------------
  | A B C D E F G H 

Turn of: black
Succesful move
e7e5
8 | R N B Q K B N R 
7 | P P P P _ P P P 
6 | _ _ _ _ _ _ _ _ 
5 | _ _ _ _ P _ _ _ 
4 | _ _ P _ _ _ _ _ 
3 | _ _ _ _ _ _ _ _ 
2 | P P _ P P P P P 
1 | R N B Q K B N R 
-------------------
  | A B C D E F G H 

Turn of: white
Succesful move
d2d3
8 | R N B Q K B N R 
7 | P P P P _ P P P 
6 | _ _ _ _ _ _ _ _ 
5 | _ _ _ _ P _ _ _ 
4 | _ _ P _ _ _ _ _ 
3 | _ _ _ P _ _ _ _ 
2 | P P _ _ P P P P 
1 | R N B Q K B N R 
-------------------
  | A B C D E F G H 

Turn of: black
Succesful move
f8b4
8 | R N B Q K _ N R 
7 | P P P P _ P P P 
6 | _ _ _ _ _ _ _ _ 
5 | _ _ _ _ P _ _ _ 
4 | _ B P _ _ _ _ _ 
3 | _ _ _ P _ _ _ _ 
2 | P P _ _ P P P P 
1 | R N B Q K B N R 
-------------------
  | A B C D E F G H 

Turn of: white
Succesful move
b1d2
8 | R N B Q K _ N R 
7 | P P P P _ P P P 
6 | _ _ _ _ _ _ _ _ 
5 | _ _ _ _ P _ _ _ 
4 | _ B P _ _ _ _ _ 
3 | _ _ _ P _ _ _ _ 
2 | P P _ N P P P P 
1 | R _ B Q K B N R 
-------------------
  | A B C D E F G H 

Turn of: black
Succesful move
e5e4
8 | R N B Q K _ N R 
7 | P P P P _ P P P 
6 | _ _ _ _ _ _ _ _ 
5 | _ _ _ _ _ _ _ _ 
4 | _ B P _ P _ _ _ 
3 | _ _ _ P _ _ _ _ 
2 | P P _ N P P P P 
1 | R _ B Q K B N R 
-------------------
  | A B C D E F G H 

Turn of: white
Succesful move
d1b3
8 | R N B Q K _ N R 
7 | P P P P _ P P P 
6 | _ _ _ _ _ _ _ _ 
5 | _ _ _ _ _ _ _ _ 
4 | _ B P _ P _ _ _ 
3 | _ Q _ P _ _ _ _ 
2 | P P _ N P P P P 
1 | R _ B _ K B N R 
-------------------
  | A B C D E F G H 

Turn of: black
Succesful move
e4e3
8 | R N B Q K _ N R 
7 | P P P P _ P P P 
6 | _ _ _ _ _ _ _ _ 
5 | _ _ _ _ _ _ _ _ 
4 | _ B P _ _ _ _ _ 
3 | _ Q _ P P _ _ _ 
2 | P P _ N P P P P 
1 | R _ B _ K B N R 
-------------------
  | A B C D E F G H 

Turn of: white
Succesful move
f2f4
8 | R N B Q K _ N R 
7 | P P P P _ P P P 
6 | _ _ _ _ _ _ _ _ 
5 | _ _ _ _ _ _ _ _ 
4 | _ B P _ _ P _ _ 
3 | _ Q _ P P _ _ _ 
2 | P P _ N P _ P P 
1 | R _ B _ K B N R 
-------------------
  | A B C D E F G H 

Turn of: black
Succesful move
d8h4
8 | R N B _ K _ N R 
7 | P P P P _ P P P 
6 | _ _ _ _ _ _ _ _ 
5 | _ _ _ _ _ _ _ _ 
4 | _ B P _ _ P _ Q 
3 | _ Q _ P P _ _ _ 
2 | P P _ N P _ P P 
1 | R _ B _ K B N R 
-------------------
  | A B C D E F G H 

Turn of: white
Succesful move
e1d1
8 | R N B _ K _ N R 
7 | P P P P _ P P P 
6 | _ _ _ _ _ _ _ _ 
5 | _ _ _ _ _ _ _ _ 
4 | _ B P _ _ P _ Q 
3 | _ Q _ P P _ _ _ 
2 | P P _ N P _ P P 
1 | R _ B K _ B N R 
-------------------
  | A B C D E F G H 

Turn of: black
Succesful move
b4a5
8 | R N B _ K _ N R 
7 | P P P P _ P P P 
6 | _ _ _ _ _ _ _ _ 
5 | B _ _ _ _ _ _ _ 
4 | _ _ P _ _ P _ Q 
3 | _ Q _ P P _ _ _ 
2 | P P _ N P _ P P 
1 | R _ B K _ B N R 
-------------------
  | A B C D E F G H 

We are playing as White
Move history:
c2c4
e7e5
d2d3
f8b4
b1d2
e5e4
d1b3
e4e3
f2f4
d8h4
e1d1
b4a5
8 | R N B _ K _ N R 
7 | P P P P _ P P P 
6 | _ _ _ _ _ _ _ _ 
5 | B _ _ _ _ _ _ _ 
4 | _ _ P _ _ P _ Q 
3 | _ Q _ P P _ _ _ 
2 | P P _ N P _ P P 
1 | R _ B K _ B N R 
-------------------
  | A B C D E F G H 

It is white's turn to play.
AI's move: h2h3
Move written: h2h3
[32;1m[Game] [0mPlayer's error code: 0
[32;1m[Game] [0mChecking move validity...
[32;1m[Board] [0mInitializing board...
[32;1m[Board] [0mLoading history file `championship/lizzie-iii-remmato-iii/history.csv`...
[32;1m[Board] [0mLoaded 12 move(s).
[32;1m[Board] [0mLoading move file `championship/lizzie-iii-remmato-iii/move.csv`...
[32;1m[Board] [0mWhite player is playing h2 to h3.
[32;1m[Board] [0m
[32;1m[Board] [0m    a b c d e f g h 
[32;1m[Board] [0m  -------------------
[32;1m[Board] [0m8 ||[30;1mr[0m|[30;1mk[0m|[30;1mb[0m| |[30;1mK[0m| |[30;1mk[0m|[30;1mr[0m|| 8
[32;1m[Board] [0m  -------------------
[32;1m[Board] [0m7 ||[30;1mp[0m|[30;1mp[0m|[30;1mp[0m|[30;1mp[0m| |[30;1mp[0m|[30;1mp[0m|[30;1mp[0m|| 7
[32;1m[Board] [0m  -------------------
[32;1m[Board] [0m6 ||[7;1m [0m| |[7;1m [0m| |[7;1m [0m| |[7;1m [0m| || 6
[32;1m[Board] [0m  -------------------
[32;1m[Board] [0m5 ||[30;1mb[0m|[7;1m [0m| |[7;1m [0m| |[7;1m [0m| |[7;1m [0m|| 5
[32;1m[Board] [0m  -------------------
[32;1m[Board] [0m4 ||[7;1m [0m| |[0;1mp[0m| |[7;1m [0m|[0;1mp[0m|[7;1m [0m|[30;1mQ[0m|| 4
[32;1m[Board] [0m  -------------------
[32;1m[Board] [0m3 || |[0;1mQ[0m| |[0;1mp[0m|[30;1mp[0m|[7;1m [0m| |[0;1mp[0m|| 3
[32;1m[Board] [0m  -------------------
[32;1m[Board] [0m2 ||[0;1mp[0m|[0;1mp[0m|[7;1m [0m|[0;1mk[0m|[0;1mp[0m| |[0;1mp[0m| || 2
[32;1m[Board] [0m  -------------------
[32;1m[Board] [0m1 ||[0;1mr[0m|[7;1m [0m|[0;1mb[0m|[0;1mK[0m| |[0;1mb[0m|[0;1mk[0m|[0;1mr[0m|| 1
[32;1m[Board] [0m  -------------------
[32;1m[Board] [0m    a b c d e f g h
[32;1m[Board] [0m
[32;1m[Referee] [0mThis is the turn of the Black player...
Error: /data/julien/Pro/git/teaching/x/2024/remmato-iii/build/bin/../resources/openings does not exist or is not a directory
[32;1m[Game] [0mPlayer's error code: 0
[32;1m[Game] [0mChecking move validity...
[32;1m[Board] [0mInitializing board...
[32;1m[Board] [0mLoading history file `championship/lizzie-iii-remmato-iii/history.csv`...
[32;1m[Board] [0mLoaded 13 move(s).
[32;1m[Board] [0mLoading move file `championship/lizzie-iii-remmato-iii/move.csv`...
[32;1m[Board] [0mBlack player is playing h4 to f2.
[32;1m[Board] [0m
[32;1m[Board] [0m    a b c d e f g h 
[32;1m[Board] [0m  -------------------
[32;1m[Board] [0m8 ||[30;1mr[0m|[30;1mk[0m|[30;1mb[0m| |[30;1mK[0m| |[30;1mk[0m|[30;1mr[0m|| 8
[32;1m[Board] [0m  -------------------
[32;1m[Board] [0m7 ||[30;1mp[0m|[30;1mp[0m|[30;1mp[0m|[30;1mp[0m| |[30;1mp[0m|[30;1mp[0m|[30;1mp[0m|| 7
[32;1m[Board] [0m  -------------------
[32;1m[Board] [0m6 ||[7;1m [0m| |[7;1m [0m| |[7;1m [0m| |[7;1m [0m| || 6
[32;1m[Board] [0m  -------------------
[32;1m[Board] [0m5 ||[30;1mb[0m|[7;1m [0m| |[7;1m [0m| |[7;1m [0m| |[7;1m [0m|| 5
[32;1m[Board] [0m  -------------------
[32;1m[Board] [0m4 ||[7;1m [0m| |[0;1mp[0m| |[7;1m [0m|[0;1mp[0m|[7;1m [0m| || 4
[32;1m[Board] [0m  -------------------
[32;1m[Board] [0m3 || |[0;1mQ[0m| |[0;1mp[0m|[30;1mp[0m|[7;1m [0m| |[0;1mp[0m|| 3
[32;1m[Board] [0m  -------------------
[32;1m[Board] [0m2 ||[0;1mp[0m|[0;1mp[0m|[7;1m [0m|[0;1mk[0m|[0;1mp[0m|[30;1mQ[0m|[0;1mp[0m| || 2
[32;1m[Board] [0m  -------------------
[32;1m[Board] [0m1 ||[0;1mr[0m|[7;1m [0m|[0;1mb[0m|[0;1mK[0m| |[0;1mb[0m|[0;1mk[0m|[0;1mr[0m|| 1
[32;1m[Board] [0m  -------------------
[32;1m[Board] [0m    a b c d e f g h
[32;1m[Board] [0m
[32;1m[Referee] [0mThis is the turn of the White player...
Input file: championship/lizzie-iii-remmato-iii/history.csv
Output file: championship/lizzie-iii-remmato-iii/move.csv
Turn of: white
Succesful move
c2c4
8 | R N B Q K B N R 
7 | P P P P P P P P 
6 | _ _ _ _ _ _ _ _ 
5 | _ _ _ _ _ _ _ _ 
4 | _ _ P _ _ _ _ _ 
3 | _ _ _ _ _ _ _ _ 
2 | P P _ P P P P P 
1 | R N B Q K B N R 
-------------------
  | A B C D E F G H 

Turn of: black
Succesful move
e7e5
8 | R N B Q K B N R 
7 | P P P P _ P P P 
6 | _ _ _ _ _ _ _ _ 
5 | _ _ _ _ P _ _ _ 
4 | _ _ P _ _ _ _ _ 
3 | _ _ _ _ _ _ _ _ 
2 | P P _ P P P P P 
1 | R N B Q K B N R 
-------------------
  | A B C D E F G H 

Turn of: white
Succesful move
d2d3
8 | R N B Q K B N R 
7 | P P P P _ P P P 
6 | _ _ _ _ _ _ _ _ 
5 | _ _ _ _ P _ _ _ 
4 | _ _ P _ _ _ _ _ 
3 | _ _ _ P _ _ _ _ 
2 | P P _ _ P P P P 
1 | R N B Q K B N R 
-------------------
  | A B C D E F G H 

Turn of: black
Succesful move
f8b4
8 | R N B Q K _ N R 
7 | P P P P _ P P P 
6 | _ _ _ _ _ _ _ _ 
5 | _ _ _ _ P _ _ _ 
4 | _ B P _ _ _ _ _ 
3 | _ _ _ P _ _ _ _ 
2 | P P _ _ P P P P 
1 | R N B Q K B N R 
-------------------
  | A B C D E F G H 

Turn of: white
Succesful move
b1d2
8 | R N B Q K _ N R 
7 | P P P P _ P P P 
6 | _ _ _ _ _ _ _ _ 
5 | _ _ _ _ P _ _ _ 
4 | _ B P _ _ _ _ _ 
3 | _ _ _ P _ _ _ _ 
2 | P P _ N P P P P 
1 | R _ B Q K B N R 
-------------------
  | A B C D E F G H 

Turn of: black
Succesful move
e5e4
8 | R N B Q K _ N R 
7 | P P P P _ P P P 
6 | _ _ _ _ _ _ _ _ 
5 | _ _ _ _ _ _ _ _ 
4 | _ B P _ P _ _ _ 
3 | _ _ _ P _ _ _ _ 
2 | P P _ N P P P P 
1 | R _ B Q K B N R 
-------------------
  | A B C D E F G H 

Turn of: white
Succesful move
d1b3
8 | R N B Q K _ N R 
7 | P P P P _ P P P 
6 | _ _ _ _ _ _ _ _ 
5 | _ _ _ _ _ _ _ _ 
4 | _ B P _ P _ _ _ 
3 | _ Q _ P _ _ _ _ 
2 | P P _ N P P P P 
1 | R _ B _ K B N R 
-------------------
  | A B C D E F G H 

Turn of: black
Succesful move
e4e3
8 | R N B Q K _ N R 
7 | P P P P _ P P P 
6 | _ _ _ _ _ _ _ _ 
5 | _ _ _ _ _ _ _ _ 
4 | _ B P _ _ _ _ _ 
3 | _ Q _ P P _ _ _ 
2 | P P _ N P P P P 
1 | R _ B _ K B N R 
-------------------
  | A B C D E F G H 

Turn of: white
Succesful move
f2f4
8 | R N B Q K _ N R 
7 | P P P P _ P P P 
6 | _ _ _ _ _ _ _ _ 
5 | _ _ _ _ _ _ _ _ 
4 | _ B P _ _ P _ _ 
3 | _ Q _ P P _ _ _ 
2 | P P _ N P _ P P 
1 | R _ B _ K B N R 
-------------------
  | A B C D E F G H 

Turn of: black
Succesful move
d8h4
8 | R N B _ K _ N R 
7 | P P P P _ P P P 
6 | _ _ _ _ _ _ _ _ 
5 | _ _ _ _ _ _ _ _ 
4 | _ B P _ _ P _ Q 
3 | _ Q _ P P _ _ _ 
2 | P P _ N P _ P P 
1 | R _ B _ K B N R 
-------------------
  | A B C D E F G H 

Turn of: white
Succesful move
e1d1
8 | R N B _ K _ N R 
7 | P P P P _ P P P 
6 | _ _ _ _ _ _ _ _ 
5 | _ _ _ _ _ _ _ _ 
4 | _ B P _ _ P _ Q 
3 | _ Q _ P P _ _ _ 
2 | P P _ N P _ P P 
1 | R _ B K _ B N R 
-------------------
  | A B C D E F G H 

Turn of: black
Succesful move
b4a5
8 | R N B _ K _ N R 
7 | P P P P _ P P P 
6 | _ _ _ _ _ _ _ _ 
5 | B _ _ _ _ _ _ _ 
4 | _ _ P _ _ P _ Q 
3 | _ Q _ P P _ _ _ 
2 | P P _ N P _ P P 
1 | R _ B K _ B N R 
-------------------
  | A B C D E F G H 

Turn of: white
Succesful move
h2h3
8 | R N B _ K _ N R 
7 | P P P P _ P P P 
6 | _ _ _ _ _ _ _ _ 
5 | B _ _ _ _ _ _ _ 
4 | _ _ P _ _ P _ Q 
3 | _ Q _ P P _ _ P 
2 | P P _ N P _ P _ 
1 | R _ B K _ B N R 
-------------------
  | A B C D E F G H 

Turn of: black
Succesful move
h4f2
8 | R N B _ K _ N R 
7 | P P P P _ P P P 
6 | _ _ _ _ _ _ _ _ 
5 | B _ _ _ _ _ _ _ 
4 | _ _ P _ _ P _ _ 
3 | _ Q _ P P _ _ P 
2 | P P _ N P Q P _ 
1 | R _ B K _ B N R 
-------------------
  | A B C D E F G H 

We are playing as White
Move history:
c2c4
e7e5
d2d3
f8b4
b1d2
e5e4
d1b3
e4e3
f2f4
d8h4
e1d1
b4a5
h2h3
h4f2
8 | R N B _ K _ N R 
7 | P P P P _ P P P 
6 | _ _ _ _ _ _ _ _ 
5 | B _ _ _ _ _ _ _ 
4 | _ _ P _ _ P _ _ 
3 | _ Q _ P P _ _ P 
2 | P P _ N P Q P _ 
1 | R _ B K _ B N R 
-------------------
  | A B C D E F G H 

It is white's turn to play.
AI's move: f4f5
Move written: f4f5
[32;1m[Game] [0mPlayer's error code: 0
[32;1m[Game] [0mChecking move validity...
[32;1m[Board] [0mInitializing board...
[32;1m[Board] [0mLoading history file `championship/lizzie-iii-remmato-iii/history.csv`...
[32;1m[Board] [0mLoaded 14 move(s).
[32;1m[Board] [0mLoading move file `championship/lizzie-iii-remmato-iii/move.csv`...
[32;1m[Board] [0mWhite player is playing f4 to f5.
[32;1m[Board] [0m
[32;1m[Board] [0m    a b c d e f g h 
[32;1m[Board] [0m  -------------------
[32;1m[Board] [0m8 ||[30;1mr[0m|[30;1mk[0m|[30;1mb[0m| |[30;1mK[0m| |[30;1mk[0m|[30;1mr[0m|| 8
[32;1m[Board] [0m  -------------------
[32;1m[Board] [0m7 ||[30;1mp[0m|[30;1mp[0m|[30;1mp[0m|[30;1mp[0m| |[30;1mp[0m|[30;1mp[0m|[30;1mp[0m|| 7
[32;1m[Board] [0m  -------------------
[32;1m[Board] [0m6 ||[7;1m [0m| |[7;1m [0m| |[7;1m [0m| |[7;1m [0m| || 6
[32;1m[Board] [0m  -------------------
[32;1m[Board] [0m5 ||[30;1mb[0m|[7;1m [0m| |[7;1m [0m| |[0;1mp[0m| |[7;1m [0m|| 5
[32;1m[Board] [0m  -------------------
[32;1m[Board] [0m4 ||[7;1m [0m| |[0;1mp[0m| |[7;1m [0m| |[7;1m [0m| || 4
[32;1m[Board] [0m  -------------------
[32;1m[Board] [0m3 || |[0;1mQ[0m| |[0;1mp[0m|[30;1mp[0m|[7;1m [0m| |[0;1mp[0m|| 3
[32;1m[Board] [0m  -------------------
[32;1m[Board] [0m2 ||[0;1mp[0m|[0;1mp[0m|[7;1m [0m|[0;1mk[0m|[0;1mp[0m|[30;1mQ[0m|[0;1mp[0m| || 2
[32;1m[Board] [0m  -------------------
[32;1m[Board] [0m1 ||[0;1mr[0m|[7;1m [0m|[0;1mb[0m|[0;1mK[0m| |[0;1mb[0m|[0;1mk[0m|[0;1mr[0m|| 1
[32;1m[Board] [0m  -------------------
[32;1m[Board] [0m    a b c d e f g h
[32;1m[Board] [0m
[32;1m[Referee] [0mThis is the turn of the Black player...
Error: /data/julien/Pro/git/teaching/x/2024/remmato-iii/build/bin/../resources/openings does not exist or is not a directory
[32;1m[Game] [0mPlayer's error code: 0
[32;1m[Game] [0mChecking move validity...
[32;1m[Board] [0mInitializing board...
[32;1m[Board] [0mLoading history file `championship/lizzie-iii-remmato-iii/history.csv`...
[32;1m[Board] [0mLoaded 15 move(s).
[32;1m[Board] [0mLoading move file `championship/lizzie-iii-remmato-iii/move.csv`...
[32;1m[Board] [0mBlack player is playing f2 to f1.
[32;1m[Board] [0m[5;1mBlack Queen is taking White Bishop.[0m
[32;1m[Board] [0m
[32;1m[Board] [0m    a b c d e f g h 
[32;1m[Board] [0m  -------------------
[32;1m[Board] [0m8 ||[30;1mr[0m|[30;1mk[0m|[30;1mb[0m| |[30;1mK[0m| |[30;1mk[0m|[30;1mr[0m|| 8
[32;1m[Board] [0m  -------------------
[32;1m[Board] [0m7 ||[30;1mp[0m|[30;1mp[0m|[30;1mp[0m|[30;1mp[0m| |[30;1mp[0m|[30;1mp[0m|[30;1mp[0m|| 7
[32;1m[Board] [0m  -------------------
[32;1m[Board] [0m6 ||[7;1m [0m| |[7;1m [0m| |[7;1m [0m| |[7;1m [0m| || 6
[32;1m[Board] [0m  -------------------
[32;1m[Board] [0m5 ||[30;1mb[0m|[7;1m [0m| |[7;1m [0m| |[0;1mp[0m| |[7;1m [0m|| 5
[32;1m[Board] [0m  -------------------
[32;1m[Board] [0m4 ||[7;1m [0m| |[0;1mp[0m| |[7;1m [0m| |[7;1m [0m| || 4
[32;1m[Board] [0m  -------------------
[32;1m[Board] [0m3 || |[0;1mQ[0m| |[0;1mp[0m|[30;1mp[0m|[7;1m [0m| |[0;1mp[0m|| 3
[32;1m[Board] [0m  -------------------
[32;1m[Board] [0m2 ||[0;1mp[0m|[0;1mp[0m|[7;1m [0m|[0;1mk[0m|[0;1mp[0m| |[0;1mp[0m| || 2
[32;1m[Board] [0m  -------------------
[32;1m[Board] [0m1 ||[0;1mr[0m|[7;1m [0m|[0;1mb[0m|[0;1mK[0m| |[30;1mQ[0m|[0;1mk[0m|[0;1mr[0m|| 1
[32;1m[Board] [0m  -------------------
[32;1m[Board] [0m    a b c d e f g h
[32;1m[Board] [0m
[32;1m[Referee] [0mThis is the turn of the White player...
[32;1m[Board] [0m[33;1m[WARNING][0m [5;1mWhite King in check![0m
[32;1m[Board] [0m[33;1m[WARNING][0m    Threatened by Black Queen (f1)
Input file: championship/lizzie-iii-remmato-iii/history.csv
Output file: championship/lizzie-iii-remmato-iii/move.csv
Turn of: white
Succesful move
c2c4
8 | R N B Q K B N R 
7 | P P P P P P P P 
6 | _ _ _ _ _ _ _ _ 
5 | _ _ _ _ _ _ _ _ 
4 | _ _ P _ _ _ _ _ 
3 | _ _ _ _ _ _ _ _ 
2 | P P _ P P P P P 
1 | R N B Q K B N R 
-------------------
  | A B C D E F G H 

Turn of: black
Succesful move
e7e5
8 | R N B Q K B N R 
7 | P P P P _ P P P 
6 | _ _ _ _ _ _ _ _ 
5 | _ _ _ _ P _ _ _ 
4 | _ _ P _ _ _ _ _ 
3 | _ _ _ _ _ _ _ _ 
2 | P P _ P P P P P 
1 | R N B Q K B N R 
-------------------
  | A B C D E F G H 

Turn of: white
Succesful move
d2d3
8 | R N B Q K B N R 
7 | P P P P _ P P P 
6 | _ _ _ _ _ _ _ _ 
5 | _ _ _ _ P _ _ _ 
4 | _ _ P _ _ _ _ _ 
3 | _ _ _ P _ _ _ _ 
2 | P P _ _ P P P P 
1 | R N B Q K B N R 
-------------------
  | A B C D E F G H 

Turn of: black
Succesful move
f8b4
8 | R N B Q K _ N R 
7 | P P P P _ P P P 
6 | _ _ _ _ _ _ _ _ 
5 | _ _ _ _ P _ _ _ 
4 | _ B P _ _ _ _ _ 
3 | _ _ _ P _ _ _ _ 
2 | P P _ _ P P P P 
1 | R N B Q K B N R 
-------------------
  | A B C D E F G H 

Turn of: white
Succesful move
b1d2
8 | R N B Q K _ N R 
7 | P P P P _ P P P 
6 | _ _ _ _ _ _ _ _ 
5 | _ _ _ _ P _ _ _ 
4 | _ B P _ _ _ _ _ 
3 | _ _ _ P _ _ _ _ 
2 | P P _ N P P P P 
1 | R _ B Q K B N R 
-------------------
  | A B C D E F G H 

Turn of: black
Succesful move
e5e4
8 | R N B Q K _ N R 
7 | P P P P _ P P P 
6 | _ _ _ _ _ _ _ _ 
5 | _ _ _ _ _ _ _ _ 
4 | _ B P _ P _ _ _ 
3 | _ _ _ P _ _ _ _ 
2 | P P _ N P P P P 
1 | R _ B Q K B N R 
-------------------
  | A B C D E F G H 

Turn of: white
Succesful move
d1b3
8 | R N B Q K _ N R 
7 | P P P P _ P P P 
6 | _ _ _ _ _ _ _ _ 
5 | _ _ _ _ _ _ _ _ 
4 | _ B P _ P _ _ _ 
3 | _ Q _ P _ _ _ _ 
2 | P P _ N P P P P 
1 | R _ B _ K B N R 
-------------------
  | A B C D E F G H 

Turn of: black
Succesful move
e4e3
8 | R N B Q K _ N R 
7 | P P P P _ P P P 
6 | _ _ _ _ _ _ _ _ 
5 | _ _ _ _ _ _ _ _ 
4 | _ B P _ _ _ _ _ 
3 | _ Q _ P P _ _ _ 
2 | P P _ N P P P P 
1 | R _ B _ K B N R 
-------------------
  | A B C D E F G H 

Turn of: white
Succesful move
f2f4
8 | R N B Q K _ N R 
7 | P P P P _ P P P 
6 | _ _ _ _ _ _ _ _ 
5 | _ _ _ _ _ _ _ _ 
4 | _ B P _ _ P _ _ 
3 | _ Q _ P P _ _ _ 
2 | P P _ N P _ P P 
1 | R _ B _ K B N R 
-------------------
  | A B C D E F G H 

Turn of: black
Succesful move
d8h4
8 | R N B _ K _ N R 
7 | P P P P _ P P P 
6 | _ _ _ _ _ _ _ _ 
5 | _ _ _ _ _ _ _ _ 
4 | _ B P _ _ P _ Q 
3 | _ Q _ P P _ _ _ 
2 | P P _ N P _ P P 
1 | R _ B _ K B N R 
-------------------
  | A B C D E F G H 

Turn of: white
Succesful move
e1d1
8 | R N B _ K _ N R 
7 | P P P P _ P P P 
6 | _ _ _ _ _ _ _ _ 
5 | _ _ _ _ _ _ _ _ 
4 | _ B P _ _ P _ Q 
3 | _ Q _ P P _ _ _ 
2 | P P _ N P _ P P 
1 | R _ B K _ B N R 
-------------------
  | A B C D E F G H 

Turn of: black
Succesful move
b4a5
8 | R N B _ K _ N R 
7 | P P P P _ P P P 
6 | _ _ _ _ _ _ _ _ 
5 | B _ _ _ _ _ _ _ 
4 | _ _ P _ _ P _ Q 
3 | _ Q _ P P _ _ _ 
2 | P P _ N P _ P P 
1 | R _ B K _ B N R 
-------------------
  | A B C D E F G H 

Turn of: white
Succesful move
h2h3
8 | R N B _ K _ N R 
7 | P P P P _ P P P 
6 | _ _ _ _ _ _ _ _ 
5 | B _ _ _ _ _ _ _ 
4 | _ _ P _ _ P _ Q 
3 | _ Q _ P P _ _ P 
2 | P P _ N P _ P _ 
1 | R _ B K _ B N R 
-------------------
  | A B C D E F G H 

Turn of: black
Succesful move
h4f2
8 | R N B _ K _ N R 
7 | P P P P _ P P P 
6 | _ _ _ _ _ _ _ _ 
5 | B _ _ _ _ _ _ _ 
4 | _ _ P _ _ P _ _ 
3 | _ Q _ P P _ _ P 
2 | P P _ N P Q P _ 
1 | R _ B K _ B N R 
-------------------
  | A B C D E F G H 

Turn of: white
Succesful move
f4f5
8 | R N B _ K _ N R 
7 | P P P P _ P P P 
6 | _ _ _ _ _ _ _ _ 
5 | B _ _ _ _ P _ _ 
4 | _ _ P _ _ _ _ _ 
3 | _ Q _ P P _ _ P 
2 | P P _ N P Q P _ 
1 | R _ B K _ B N R 
-------------------
  | A B C D E F G H 

Turn of: black
Succesful move
f2f1
8 | R N B _ K _ N R 
7 | P P P P _ P P P 
6 | _ _ _ _ _ _ _ _ 
5 | B _ _ _ _ P _ _ 
4 | _ _ P _ _ _ _ _ 
3 | _ Q _ P P _ _ P 
2 | P P _ N P _ P _ 
1 | R _ B K _ Q N R 
-------------------
  | A B C D E F G H 

We are playing as White
Move history:
c2c4
e7e5
d2d3
f8b4
b1d2
e5e4
d1b3
e4e3
f2f4
d8h4
e1d1
b4a5
h2h3
h4f2
f4f5
f2f1
8 | R N B _ K _ N R 
7 | P P P P _ P P P 
6 | _ _ _ _ _ _ _ _ 
5 | B _ _ _ _ P _ _ 
4 | _ _ P _ _ _ _ _ 
3 | _ Q _ P P _ _ P 
2 | P P _ N P _ P _ 
1 | R _ B K _ Q N R 
-------------------
  | A B C D E F G H 

It is white's turn to play.
AI's move: d2f1
Move written: d2f1
[32;1m[Game] [0mPlayer's error code: 0
[32;1m[Game] [0mChecking move validity...
[32;1m[Board] [0mInitializing board...
[32;1m[Board] [0mLoading history file `championship/lizzie-iii-remmato-iii/history.csv`...
[32;1m[Board] [0mLoaded 16 move(s).
[32;1m[Board] [0mLoading move file `championship/lizzie-iii-remmato-iii/move.csv`...
[32;1m[Board] [0mWhite player is playing d2 to f1.
[32;1m[Board] [0m[5;1mWhite Knight is taking Black Queen.[0m
[32;1m[Board] [0m
[32;1m[Board] [0m    a b c d e f g h 
[32;1m[Board] [0m  -------------------
[32;1m[Board] [0m8 ||[30;1mr[0m|[30;1mk[0m|[30;1mb[0m| |[30;1mK[0m| |[30;1mk[0m|[30;1mr[0m|| 8
[32;1m[Board] [0m  -------------------
[32;1m[Board] [0m7 ||[30;1mp[0m|[30;1mp[0m|[30;1mp[0m|[30;1mp[0m| |[30;1mp[0m|[30;1mp[0m|[30;1mp[0m|| 7
[32;1m[Board] [0m  -------------------
[32;1m[Board] [0m6 ||[7;1m [0m| |[7;1m [0m| |[7;1m [0m| |[7;1m [0m| || 6
[32;1m[Board] [0m  -------------------
[32;1m[Board] [0m5 ||[30;1mb[0m|[7;1m [0m| |[7;1m [0m| |[0;1mp[0m| |[7;1m [0m|| 5
[32;1m[Board] [0m  -------------------
[32;1m[Board] [0m4 ||[7;1m [0m| |[0;1mp[0m| |[7;1m [0m| |[7;1m [0m| || 4
[32;1m[Board] [0m  -------------------
[32;1m[Board] [0m3 || |[0;1mQ[0m| |[0;1mp[0m|[30;1mp[0m|[7;1m [0m| |[0;1mp[0m|| 3
[32;1m[Board] [0m  -------------------
[32;1m[Board] [0m2 ||[0;1mp[0m|[0;1mp[0m|[7;1m [0m| |[0;1mp[0m| |[0;1mp[0m| || 2
[32;1m[Board] [0m  -------------------
[32;1m[Board] [0m1 ||[0;1mr[0m|[7;1m [0m|[0;1mb[0m|[0;1mK[0m| |[0;1mk[0m|[0;1mk[0m|[0;1mr[0m|| 1
[32;1m[Board] [0m  -------------------
[32;1m[Board] [0m    a b c d e f g h
[32;1m[Board] [0m
[32;1m[Referee] [0mThis is the turn of the Black player...
Error: /data/julien/Pro/git/teaching/x/2024/remmato-iii/build/bin/../resources/openings does not exist or is not a directory
[32;1m[Game] [0mPlayer's error code: 0
[32;1m[Game] [0mChecking move validity...
[32;1m[Board] [0mInitializing board...
[32;1m[Board] [0mLoading history file `championship/lizzie-iii-remmato-iii/history.csv`...
[32;1m[Board] [0mLoaded 17 move(s).
[32;1m[Board] [0mLoading move file `championship/lizzie-iii-remmato-iii/move.csv`...
[32;1m[Board] [0mBlack player is playing h7 to h5.
[32;1m[Board] [0m
[32;1m[Board] [0m    a b c d e f g h 
[32;1m[Board] [0m  -------------------
[32;1m[Board] [0m8 ||[30;1mr[0m|[30;1mk[0m|[30;1mb[0m| |[30;1mK[0m| |[30;1mk[0m|[30;1mr[0m|| 8
[32;1m[Board] [0m  -------------------
[32;1m[Board] [0m7 ||[30;1mp[0m|[30;1mp[0m|[30;1mp[0m|[30;1mp[0m| |[30;1mp[0m|[30;1mp[0m|[7;1m [0m|| 7
[32;1m[Board] [0m  -------------------
[32;1m[Board] [0m6 ||[7;1m [0m| |[7;1m [0m| |[7;1m [0m| |[7;1m [0m| || 6
[32;1m[Board] [0m  -------------------
[32;1m[Board] [0m5 ||[30;1mb[0m|[7;1m [0m| |[7;1m [0m| |[0;1mp[0m| |[30;1mp[0m|| 5
[32;1m[Board] [0m  -------------------
[32;1m[Board] [0m4 ||[7;1m [0m| |[0;1mp[0m| |[7;1m [0m| |[7;1m [0m| || 4
[32;1m[Board] [0m  -------------------
[32;1m[Board] [0m3 || |[0;1mQ[0m| |[0;1mp[0m|[30;1mp[0m|[7;1m [0m| |[0;1mp[0m|| 3
[32;1m[Board] [0m  -------------------
[32;1m[Board] [0m2 ||[0;1mp[0m|[0;1mp[0m|[7;1m [0m| |[0;1mp[0m| |[0;1mp[0m| || 2
[32;1m[Board] [0m  -------------------
[32;1m[Board] [0m1 ||[0;1mr[0m|[7;1m [0m|[0;1mb[0m|[0;1mK[0m| |[0;1mk[0m|[0;1mk[0m|[0;1mr[0m|| 1
[32;1m[Board] [0m  -------------------
[32;1m[Board] [0m    a b c d e f g h
[32;1m[Board] [0m
[32;1m[Referee] [0mThis is the turn of the White player...
Input file: championship/lizzie-iii-remmato-iii/history.csv
Output file: championship/lizzie-iii-remmato-iii/move.csv
Turn of: white
Succesful move
c2c4
8 | R N B Q K B N R 
7 | P P P P P P P P 
6 | _ _ _ _ _ _ _ _ 
5 | _ _ _ _ _ _ _ _ 
4 | _ _ P _ _ _ _ _ 
3 | _ _ _ _ _ _ _ _ 
2 | P P _ P P P P P 
1 | R N B Q K B N R 
-------------------
  | A B C D E F G H 

Turn of: black
Succesful move
e7e5
8 | R N B Q K B N R 
7 | P P P P _ P P P 
6 | _ _ _ _ _ _ _ _ 
5 | _ _ _ _ P _ _ _ 
4 | _ _ P _ _ _ _ _ 
3 | _ _ _ _ _ _ _ _ 
2 | P P _ P P P P P 
1 | R N B Q K B N R 
-------------------
  | A B C D E F G H 

Turn of: white
Succesful move
d2d3
8 | R N B Q K B N R 
7 | P P P P _ P P P 
6 | _ _ _ _ _ _ _ _ 
5 | _ _ _ _ P _ _ _ 
4 | _ _ P _ _ _ _ _ 
3 | _ _ _ P _ _ _ _ 
2 | P P _ _ P P P P 
1 | R N B Q K B N R 
-------------------
  | A B C D E F G H 

Turn of: black
Succesful move
f8b4
8 | R N B Q K _ N R 
7 | P P P P _ P P P 
6 | _ _ _ _ _ _ _ _ 
5 | _ _ _ _ P _ _ _ 
4 | _ B P _ _ _ _ _ 
3 | _ _ _ P _ _ _ _ 
2 | P P _ _ P P P P 
1 | R N B Q K B N R 
-------------------
  | A B C D E F G H 

Turn of: white
Succesful move
b1d2
8 | R N B Q K _ N R 
7 | P P P P _ P P P 
6 | _ _ _ _ _ _ _ _ 
5 | _ _ _ _ P _ _ _ 
4 | _ B P _ _ _ _ _ 
3 | _ _ _ P _ _ _ _ 
2 | P P _ N P P P P 
1 | R _ B Q K B N R 
-------------------
  | A B C D E F G H 

Turn of: black
Succesful move
e5e4
8 | R N B Q K _ N R 
7 | P P P P _ P P P 
6 | _ _ _ _ _ _ _ _ 
5 | _ _ _ _ _ _ _ _ 
4 | _ B P _ P _ _ _ 
3 | _ _ _ P _ _ _ _ 
2 | P P _ N P P P P 
1 | R _ B Q K B N R 
-------------------
  | A B C D E F G H 

Turn of: white
Succesful move
d1b3
8 | R N B Q K _ N R 
7 | P P P P _ P P P 
6 | _ _ _ _ _ _ _ _ 
5 | _ _ _ _ _ _ _ _ 
4 | _ B P _ P _ _ _ 
3 | _ Q _ P _ _ _ _ 
2 | P P _ N P P P P 
1 | R _ B _ K B N R 
-------------------
  | A B C D E F G H 

Turn of: black
Succesful move
e4e3
8 | R N B Q K _ N R 
7 | P P P P _ P P P 
6 | _ _ _ _ _ _ _ _ 
5 | _ _ _ _ _ _ _ _ 
4 | _ B P _ _ _ _ _ 
3 | _ Q _ P P _ _ _ 
2 | P P _ N P P P P 
1 | R _ B _ K B N R 
-------------------
  | A B C D E F G H 

Turn of: white
Succesful move
f2f4
8 | R N B Q K _ N R 
7 | P P P P _ P P P 
6 | _ _ _ _ _ _ _ _ 
5 | _ _ _ _ _ _ _ _ 
4 | _ B P _ _ P _ _ 
3 | _ Q _ P P _ _ _ 
2 | P P _ N P _ P P 
1 | R _ B _ K B N R 
-------------------
  | A B C D E F G H 

Turn of: black
Succesful move
d8h4
8 | R N B _ K _ N R 
7 | P P P P _ P P P 
6 | _ _ _ _ _ _ _ _ 
5 | _ _ _ _ _ _ _ _ 
4 | _ B P _ _ P _ Q 
3 | _ Q _ P P _ _ _ 
2 | P P _ N P _ P P 
1 | R _ B _ K B N R 
-------------------
  | A B C D E F G H 

Turn of: white
Succesful move
e1d1
8 | R N B _ K _ N R 
7 | P P P P _ P P P 
6 | _ _ _ _ _ _ _ _ 
5 | _ _ _ _ _ _ _ _ 
4 | _ B P _ _ P _ Q 
3 | _ Q _ P P _ _ _ 
2 | P P _ N P _ P P 
1 | R _ B K _ B N R 
-------------------
  | A B C D E F G H 

Turn of: black
Succesful move
b4a5
8 | R N B _ K _ N R 
7 | P P P P _ P P P 
6 | _ _ _ _ _ _ _ _ 
5 | B _ _ _ _ _ _ _ 
4 | _ _ P _ _ P _ Q 
3 | _ Q _ P P _ _ _ 
2 | P P _ N P _ P P 
1 | R _ B K _ B N R 
-------------------
  | A B C D E F G H 

Turn of: white
Succesful move
h2h3
8 | R N B _ K _ N R 
7 | P P P P _ P P P 
6 | _ _ _ _ _ _ _ _ 
5 | B _ _ _ _ _ _ _ 
4 | _ _ P _ _ P _ Q 
3 | _ Q _ P P _ _ P 
2 | P P _ N P _ P _ 
1 | R _ B K _ B N R 
-------------------
  | A B C D E F G H 

Turn of: black
Succesful move
h4f2
8 | R N B _ K _ N R 
7 | P P P P _ P P P 
6 | _ _ _ _ _ _ _ _ 
5 | B _ _ _ _ _ _ _ 
4 | _ _ P _ _ P _ _ 
3 | _ Q _ P P _ _ P 
2 | P P _ N P Q P _ 
1 | R _ B K _ B N R 
-------------------
  | A B C D E F G H 

Turn of: white
Succesful move
f4f5
8 | R N B _ K _ N R 
7 | P P P P _ P P P 
6 | _ _ _ _ _ _ _ _ 
5 | B _ _ _ _ P _ _ 
4 | _ _ P _ _ _ _ _ 
3 | _ Q _ P P _ _ P 
2 | P P _ N P Q P _ 
1 | R _ B K _ B N R 
-------------------
  | A B C D E F G H 

Turn of: black
Succesful move
f2f1
8 | R N B _ K _ N R 
7 | P P P P _ P P P 
6 | _ _ _ _ _ _ _ _ 
5 | B _ _ _ _ P _ _ 
4 | _ _ P _ _ _ _ _ 
3 | _ Q _ P P _ _ P 
2 | P P _ N P _ P _ 
1 | R _ B K _ Q N R 
-------------------
  | A B C D E F G H 

Turn of: white
Succesful move
d2f1
8 | R N B _ K _ N R 
7 | P P P P _ P P P 
6 | _ _ _ _ _ _ _ _ 
5 | B _ _ _ _ P _ _ 
4 | _ _ P _ _ _ _ _ 
3 | _ Q _ P P _ _ P 
2 | P P _ _ P _ P _ 
1 | R _ B K _ N N R 
-------------------
  | A B C D E F G H 

Turn of: black
Succesful move
h7h5
8 | R N B _ K _ N R 
7 | P P P P _ P P _ 
6 | _ _ _ _ _ _ _ _ 
5 | B _ _ _ _ P _ P 
4 | _ _ P _ _ _ _ _ 
3 | _ Q _ P P _ _ P 
2 | P P _ _ P _ P _ 
1 | R _ B K _ N N R 
-------------------
  | A B C D E F G H 

We are playing as White
Move history:
c2c4
e7e5
d2d3
f8b4
b1d2
e5e4
d1b3
e4e3
f2f4
d8h4
e1d1
b4a5
h2h3
h4f2
f4f5
f2f1
d2f1
h7h5
8 | R N B _ K _ N R 
7 | P P P P _ P P _ 
6 | _ _ _ _ _ _ _ _ 
5 | B _ _ _ _ P _ P 
4 | _ _ P _ _ _ _ _ 
3 | _ Q _ P P _ _ P 
2 | P P _ _ P _ P _ 
1 | R _ B K _ N N R 
-------------------
  | A B C D E F G H 

It is white's turn to play.
AI's move: b3c3
Move written: b3c3
[32;1m[Game] [0mPlayer's error code: 0
[32;1m[Game] [0mChecking move validity...
[32;1m[Board] [0mInitializing board...
[32;1m[Board] [0mLoading history file `championship/lizzie-iii-remmato-iii/history.csv`...
[32;1m[Board] [0mLoaded 18 move(s).
[32;1m[Board] [0mLoading move file `championship/lizzie-iii-remmato-iii/move.csv`...
[32;1m[Board] [0mWhite player is playing b3 to c3.
[32;1m[Board] [0m
[32;1m[Board] [0m    a b c d e f g h 
[32;1m[Board] [0m  -------------------
[32;1m[Board] [0m8 ||[30;1mr[0m|[30;1mk[0m|[30;1mb[0m| |[30;1mK[0m| |[30;1mk[0m|[30;1mr[0m|| 8
[32;1m[Board] [0m  -------------------
[32;1m[Board] [0m7 ||[30;1mp[0m|[30;1mp[0m|[30;1mp[0m|[30;1mp[0m| |[30;1mp[0m|[30;1mp[0m|[7;1m [0m|| 7
[32;1m[Board] [0m  -------------------
[32;1m[Board] [0m6 ||[7;1m [0m| |[7;1m [0m| |[7;1m [0m| |[7;1m [0m| || 6
[32;1m[Board] [0m  -------------------
[32;1m[Board] [0m5 ||[30;1mb[0m|[7;1m [0m| |[7;1m [0m| |[0;1mp[0m| |[30;1mp[0m|| 5
[32;1m[Board] [0m  -------------------
[32;1m[Board] [0m4 ||[7;1m [0m| |[0;1mp[0m| |[7;1m [0m| |[7;1m [0m| || 4
[32;1m[Board] [0m  -------------------
[32;1m[Board] [0m3 || |[7;1m [0m|[0;1mQ[0m|[0;1mp[0m|[30;1mp[0m|[7;1m [0m| |[0;1mp[0m|| 3
[32;1m[Board] [0m  -------------------
[32;1m[Board] [0m2 ||[0;1mp[0m|[0;1mp[0m|[7;1m [0m| |[0;1mp[0m| |[0;1mp[0m| || 2
[32;1m[Board] [0m  -------------------
[32;1m[Board] [0m1 ||[0;1mr[0m|[7;1m [0m|[0;1mb[0m|[0;1mK[0m| |[0;1mk[0m|[0;1mk[0m|[0;1mr[0m|| 1
[32;1m[Board] [0m  -------------------
[32;1m[Board] [0m    a b c d e f g h
[32;1m[Board] [0m
[32;1m[Referee] [0mThis is the turn of the Black player...
Error: /data/julien/Pro/git/teaching/x/2024/remmato-iii/build/bin/../resources/openings does not exist or is not a directory
[32;1m[Game] [0mPlayer's error code: 0
[32;1m[Game] [0mChecking move validity...
[32;1m[Board] [0mInitializing board...
[32;1m[Board] [0mLoading history file `championship/lizzie-iii-remmato-iii/history.csv`...
[32;1m[Board] [0mLoaded 19 move(s).
[32;1m[Board] [0mLoading move file `championship/lizzie-iii-remmato-iii/move.csv`...
[32;1m[Board] [0mBlack player is playing a5 to b6.
[32;1m[Board] [0m
[32;1m[Board] [0m    a b c d e f g h 
[32;1m[Board] [0m  -------------------
[32;1m[Board] [0m8 ||[30;1mr[0m|[30;1mk[0m|[30;1mb[0m| |[30;1mK[0m| |[30;1mk[0m|[30;1mr[0m|| 8
[32;1m[Board] [0m  -------------------
[32;1m[Board] [0m7 ||[30;1mp[0m|[30;1mp[0m|[30;1mp[0m|[30;1mp[0m| |[30;1mp[0m|[30;1mp[0m|[7;1m [0m|| 7
[32;1m[Board] [0m  -------------------
[32;1m[Board] [0m6 ||[7;1m [0m|[30;1mb[0m|[7;1m [0m| |[7;1m [0m| |[7;1m [0m| || 6
[32;1m[Board] [0m  -------------------
[32;1m[Board] [0m5 || |[7;1m [0m| |[7;1m [0m| |[0;1mp[0m| |[30;1mp[0m|| 5
[32;1m[Board] [0m  -------------------
[32;1m[Board] [0m4 ||[7;1m [0m| |[0;1mp[0m| |[7;1m [0m| |[7;1m [0m| || 4
[32;1m[Board] [0m  -------------------
[32;1m[Board] [0m3 || |[7;1m [0m|[0;1mQ[0m|[0;1mp[0m|[30;1mp[0m|[7;1m [0m| |[0;1mp[0m|| 3
[32;1m[Board] [0m  -------------------
[32;1m[Board] [0m2 ||[0;1mp[0m|[0;1mp[0m|[7;1m [0m| |[0;1mp[0m| |[0;1mp[0m| || 2
[32;1m[Board] [0m  -------------------
[32;1m[Board] [0m1 ||[0;1mr[0m|[7;1m [0m|[0;1mb[0m|[0;1mK[0m| |[0;1mk[0m|[0;1mk[0m|[0;1mr[0m|| 1
[32;1m[Board] [0m  -------------------
[32;1m[Board] [0m    a b c d e f g h
[32;1m[Board] [0m
[32;1m[Referee] [0mThis is the turn of the White player...
Input file: championship/lizzie-iii-remmato-iii/history.csv
Output file: championship/lizzie-iii-remmato-iii/move.csv
Turn of: white
Succesful move
c2c4
8 | R N B Q K B N R 
7 | P P P P P P P P 
6 | _ _ _ _ _ _ _ _ 
5 | _ _ _ _ _ _ _ _ 
4 | _ _ P _ _ _ _ _ 
3 | _ _ _ _ _ _ _ _ 
2 | P P _ P P P P P 
1 | R N B Q K B N R 
-------------------
  | A B C D E F G H 

Turn of: black
Succesful move
e7e5
8 | R N B Q K B N R 
7 | P P P P _ P P P 
6 | _ _ _ _ _ _ _ _ 
5 | _ _ _ _ P _ _ _ 
4 | _ _ P _ _ _ _ _ 
3 | _ _ _ _ _ _ _ _ 
2 | P P _ P P P P P 
1 | R N B Q K B N R 
-------------------
  | A B C D E F G H 

Turn of: white
Succesful move
d2d3
8 | R N B Q K B N R 
7 | P P P P _ P P P 
6 | _ _ _ _ _ _ _ _ 
5 | _ _ _ _ P _ _ _ 
4 | _ _ P _ _ _ _ _ 
3 | _ _ _ P _ _ _ _ 
2 | P P _ _ P P P P 
1 | R N B Q K B N R 
-------------------
  | A B C D E F G H 

Turn of: black
Succesful move
f8b4
8 | R N B Q K _ N R 
7 | P P P P _ P P P 
6 | _ _ _ _ _ _ _ _ 
5 | _ _ _ _ P _ _ _ 
4 | _ B P _ _ _ _ _ 
3 | _ _ _ P _ _ _ _ 
2 | P P _ _ P P P P 
1 | R N B Q K B N R 
-------------------
  | A B C D E F G H 

Turn of: white
Succesful move
b1d2
8 | R N B Q K _ N R 
7 | P P P P _ P P P 
6 | _ _ _ _ _ _ _ _ 
5 | _ _ _ _ P _ _ _ 
4 | _ B P _ _ _ _ _ 
3 | _ _ _ P _ _ _ _ 
2 | P P _ N P P P P 
1 | R _ B Q K B N R 
-------------------
  | A B C D E F G H 

Turn of: black
Succesful move
e5e4
8 | R N B Q K _ N R 
7 | P P P P _ P P P 
6 | _ _ _ _ _ _ _ _ 
5 | _ _ _ _ _ _ _ _ 
4 | _ B P _ P _ _ _ 
3 | _ _ _ P _ _ _ _ 
2 | P P _ N P P P P 
1 | R _ B Q K B N R 
-------------------
  | A B C D E F G H 

Turn of: white
Succesful move
d1b3
8 | R N B Q K _ N R 
7 | P P P P _ P P P 
6 | _ _ _ _ _ _ _ _ 
5 | _ _ _ _ _ _ _ _ 
4 | _ B P _ P _ _ _ 
3 | _ Q _ P _ _ _ _ 
2 | P P _ N P P P P 
1 | R _ B _ K B N R 
-------------------
  | A B C D E F G H 

Turn of: black
Succesful move
e4e3
8 | R N B Q K _ N R 
7 | P P P P _ P P P 
6 | _ _ _ _ _ _ _ _ 
5 | _ _ _ _ _ _ _ _ 
4 | _ B P _ _ _ _ _ 
3 | _ Q _ P P _ _ _ 
2 | P P _ N P P P P 
1 | R _ B _ K B N R 
-------------------
  | A B C D E F G H 

Turn of: white
Succesful move
f2f4
8 | R N B Q K _ N R 
7 | P P P P _ P P P 
6 | _ _ _ _ _ _ _ _ 
5 | _ _ _ _ _ _ _ _ 
4 | _ B P _ _ P _ _ 
3 | _ Q _ P P _ _ _ 
2 | P P _ N P _ P P 
1 | R _ B _ K B N R 
-------------------
  | A B C D E F G H 

Turn of: black
Succesful move
d8h4
8 | R N B _ K _ N R 
7 | P P P P _ P P P 
6 | _ _ _ _ _ _ _ _ 
5 | _ _ _ _ _ _ _ _ 
4 | _ B P _ _ P _ Q 
3 | _ Q _ P P _ _ _ 
2 | P P _ N P _ P P 
1 | R _ B _ K B N R 
-------------------
  | A B C D E F G H 

Turn of: white
Succesful move
e1d1
8 | R N B _ K _ N R 
7 | P P P P _ P P P 
6 | _ _ _ _ _ _ _ _ 
5 | _ _ _ _ _ _ _ _ 
4 | _ B P _ _ P _ Q 
3 | _ Q _ P P _ _ _ 
2 | P P _ N P _ P P 
1 | R _ B K _ B N R 
-------------------
  | A B C D E F G H 

Turn of: black
Succesful move
b4a5
8 | R N B _ K _ N R 
7 | P P P P _ P P P 
6 | _ _ _ _ _ _ _ _ 
5 | B _ _ _ _ _ _ _ 
4 | _ _ P _ _ P _ Q 
3 | _ Q _ P P _ _ _ 
2 | P P _ N P _ P P 
1 | R _ B K _ B N R 
-------------------
  | A B C D E F G H 

Turn of: white
Succesful move
h2h3
8 | R N B _ K _ N R 
7 | P P P P _ P P P 
6 | _ _ _ _ _ _ _ _ 
5 | B _ _ _ _ _ _ _ 
4 | _ _ P _ _ P _ Q 
3 | _ Q _ P P _ _ P 
2 | P P _ N P _ P _ 
1 | R _ B K _ B N R 
-------------------
  | A B C D E F G H 

Turn of: black
Succesful move
h4f2
8 | R N B _ K _ N R 
7 | P P P P _ P P P 
6 | _ _ _ _ _ _ _ _ 
5 | B _ _ _ _ _ _ _ 
4 | _ _ P _ _ P _ _ 
3 | _ Q _ P P _ _ P 
2 | P P _ N P Q P _ 
1 | R _ B K _ B N R 
-------------------
  | A B C D E F G H 

Turn of: white
Succesful move
f4f5
8 | R N B _ K _ N R 
7 | P P P P _ P P P 
6 | _ _ _ _ _ _ _ _ 
5 | B _ _ _ _ P _ _ 
4 | _ _ P _ _ _ _ _ 
3 | _ Q _ P P _ _ P 
2 | P P _ N P Q P _ 
1 | R _ B K _ B N R 
-------------------
  | A B C D E F G H 

Turn of: black
Succesful move
f2f1
8 | R N B _ K _ N R 
7 | P P P P _ P P P 
6 | _ _ _ _ _ _ _ _ 
5 | B _ _ _ _ P _ _ 
4 | _ _ P _ _ _ _ _ 
3 | _ Q _ P P _ _ P 
2 | P P _ N P _ P _ 
1 | R _ B K _ Q N R 
-------------------
  | A B C D E F G H 

Turn of: white
Succesful move
d2f1
8 | R N B _ K _ N R 
7 | P P P P _ P P P 
6 | _ _ _ _ _ _ _ _ 
5 | B _ _ _ _ P _ _ 
4 | _ _ P _ _ _ _ _ 
3 | _ Q _ P P _ _ P 
2 | P P _ _ P _ P _ 
1 | R _ B K _ N N R 
-------------------
  | A B C D E F G H 

Turn of: black
Succesful move
h7h5
8 | R N B _ K _ N R 
7 | P P P P _ P P _ 
6 | _ _ _ _ _ _ _ _ 
5 | B _ _ _ _ P _ P 
4 | _ _ P _ _ _ _ _ 
3 | _ Q _ P P _ _ P 
2 | P P _ _ P _ P _ 
1 | R _ B K _ N N R 
-------------------
  | A B C D E F G H 

Turn of: white
Succesful move
b3c3
8 | R N B _ K _ N R 
7 | P P P P _ P P _ 
6 | _ _ _ _ _ _ _ _ 
5 | B _ _ _ _ P _ P 
4 | _ _ P _ _ _ _ _ 
3 | _ _ Q P P _ _ P 
2 | P P _ _ P _ P _ 
1 | R _ B K _ N N R 
-------------------
  | A B C D E F G H 

Turn of: black
Succesful move
a5b6
8 | R N B _ K _ N R 
7 | P P P P _ P P _ 
6 | _ B _ _ _ _ _ _ 
5 | _ _ _ _ _ P _ P 
4 | _ _ P _ _ _ _ _ 
3 | _ _ Q P P _ _ P 
2 | P P _ _ P _ P _ 
1 | R _ B K _ N N R 
-------------------
  | A B C D E F G H 

We are playing as White
Move history:
c2c4
e7e5
d2d3
f8b4
b1d2
e5e4
d1b3
e4e3
f2f4
d8h4
e1d1
b4a5
h2h3
h4f2
f4f5
f2f1
d2f1
h7h5
b3c3
a5b6
8 | R N B _ K _ N R 
7 | P P P P _ P P _ 
6 | _ B _ _ _ _ _ _ 
5 | _ _ _ _ _ P _ P 
4 | _ _ P _ _ _ _ _ 
3 | _ _ Q P P _ _ P 
2 | P P _ _ P _ P _ 
1 | R _ B K _ N N R 
-------------------
  | A B C D E F G H 

It is white's turn to play.
AI's move: d1c2
Move written: d1c2
[32;1m[Game] [0mPlayer's error code: 0
[32;1m[Game] [0mChecking move validity...
[32;1m[Board] [0mInitializing board...
[32;1m[Board] [0mLoading history file `championship/lizzie-iii-remmato-iii/history.csv`...
[32;1m[Board] [0mLoaded 20 move(s).
[32;1m[Board] [0mLoading move file `championship/lizzie-iii-remmato-iii/move.csv`...
[32;1m[Board] [0mWhite player is playing d1 to c2.
[32;1m[Board] [0m
[32;1m[Board] [0m    a b c d e f g h 
[32;1m[Board] [0m  -------------------
[32;1m[Board] [0m8 ||[30;1mr[0m|[30;1mk[0m|[30;1mb[0m| |[30;1mK[0m| |[30;1mk[0m|[30;1mr[0m|| 8
[32;1m[Board] [0m  -------------------
[32;1m[Board] [0m7 ||[30;1mp[0m|[30;1mp[0m|[30;1mp[0m|[30;1mp[0m| |[30;1mp[0m|[30;1mp[0m|[7;1m [0m|| 7
[32;1m[Board] [0m  -------------------
[32;1m[Board] [0m6 ||[7;1m [0m|[30;1mb[0m|[7;1m [0m| |[7;1m [0m| |[7;1m [0m| || 6
[32;1m[Board] [0m  -------------------
[32;1m[Board] [0m5 || |[7;1m [0m| |[7;1m [0m| |[0;1mp[0m| |[30;1mp[0m|| 5
[32;1m[Board] [0m  -------------------
[32;1m[Board] [0m4 ||[7;1m [0m| |[0;1mp[0m| |[7;1m [0m| |[7;1m [0m| || 4
[32;1m[Board] [0m  -------------------
[32;1m[Board] [0m3 || |[7;1m [0m|[0;1mQ[0m|[0;1mp[0m|[30;1mp[0m|[7;1m [0m| |[0;1mp[0m|| 3
[32;1m[Board] [0m  -------------------
[32;1m[Board] [0m2 ||[0;1mp[0m|[0;1mp[0m|[0;1mK[0m| |[0;1mp[0m| |[0;1mp[0m| || 2
[32;1m[Board] [0m  -------------------
[32;1m[Board] [0m1 ||[0;1mr[0m|[7;1m [0m|[0;1mb[0m|[7;1m [0m| |[0;1mk[0m|[0;1mk[0m|[0;1mr[0m|| 1
[32;1m[Board] [0m  -------------------
[32;1m[Board] [0m    a b c d e f g h
[32;1m[Board] [0m
[32;1m[Referee] [0mThis is the turn of the Black player...
Error: /data/julien/Pro/git/teaching/x/2024/remmato-iii/build/bin/../resources/openings does not exist or is not a directory
[32;1m[Game] [0mPlayer's error code: 0
[32;1m[Game] [0mChecking move validity...
[32;1m[Board] [0mInitializing board...
[32;1m[Board] [0mLoading history file `championship/lizzie-iii-remmato-iii/history.csv`...
[32;1m[Board] [0mLoaded 21 move(s).
[32;1m[Board] [0mLoading move file `championship/lizzie-iii-remmato-iii/move.csv`...
[32;1m[Board] [0mBlack player is playing g7 to g5.
[32;1m[Board] [0m
[32;1m[Board] [0m    a b c d e f g h 
[32;1m[Board] [0m  -------------------
[32;1m[Board] [0m8 ||[30;1mr[0m|[30;1mk[0m|[30;1mb[0m| |[30;1mK[0m| |[30;1mk[0m|[30;1mr[0m|| 8
[32;1m[Board] [0m  -------------------
[32;1m[Board] [0m7 ||[30;1mp[0m|[30;1mp[0m|[30;1mp[0m|[30;1mp[0m| |[30;1mp[0m| |[7;1m [0m|| 7
[32;1m[Board] [0m  -------------------
[32;1m[Board] [0m6 ||[7;1m [0m|[30;1mb[0m|[7;1m [0m| |[7;1m [0m| |[7;1m [0m| || 6
[32;1m[Board] [0m  -------------------
[32;1m[Board] [0m5 || |[7;1m [0m| |[7;1m [0m| |[0;1mp[0m|[30;1mp[0m|[30;1mp[0m|| 5
[32;1m[Board] [0m  -------------------
[32;1m[Board] [0m4 ||[7;1m [0m| |[0;1mp[0m| |[7;1m [0m| |[7;1m [0m| || 4
[32;1m[Board] [0m  -------------------
[32;1m[Board] [0m3 || |[7;1m [0m|[0;1mQ[0m|[0;1mp[0m|[30;1mp[0m|[7;1m [0m| |[0;1mp[0m|| 3
[32;1m[Board] [0m  -------------------
[32;1m[Board] [0m2 ||[0;1mp[0m|[0;1mp[0m|[0;1mK[0m| |[0;1mp[0m| |[0;1mp[0m| || 2
[32;1m[Board] [0m  -------------------
[32;1m[Board] [0m1 ||[0;1mr[0m|[7;1m [0m|[0;1mb[0m|[7;1m [0m| |[0;1mk[0m|[0;1mk[0m|[0;1mr[0m|| 1
[32;1m[Board] [0m  -------------------
[32;1m[Board] [0m    a b c d e f g h
[32;1m[Board] [0m
[32;1m[Referee] [0mThis is the turn of the White player...
Input file: championship/lizzie-iii-remmato-iii/history.csv
Output file: championship/lizzie-iii-remmato-iii/move.csv
Turn of: white
Succesful move
c2c4
8 | R N B Q K B N R 
7 | P P P P P P P P 
6 | _ _ _ _ _ _ _ _ 
5 | _ _ _ _ _ _ _ _ 
4 | _ _ P _ _ _ _ _ 
3 | _ _ _ _ _ _ _ _ 
2 | P P _ P P P P P 
1 | R N B Q K B N R 
-------------------
  | A B C D E F G H 

Turn of: black
Succesful move
e7e5
8 | R N B Q K B N R 
7 | P P P P _ P P P 
6 | _ _ _ _ _ _ _ _ 
5 | _ _ _ _ P _ _ _ 
4 | _ _ P _ _ _ _ _ 
3 | _ _ _ _ _ _ _ _ 
2 | P P _ P P P P P 
1 | R N B Q K B N R 
-------------------
  | A B C D E F G H 

Turn of: white
Succesful move
d2d3
8 | R N B Q K B N R 
7 | P P P P _ P P P 
6 | _ _ _ _ _ _ _ _ 
5 | _ _ _ _ P _ _ _ 
4 | _ _ P _ _ _ _ _ 
3 | _ _ _ P _ _ _ _ 
2 | P P _ _ P P P P 
1 | R N B Q K B N R 
-------------------
  | A B C D E F G H 

Turn of: black
Succesful move
f8b4
8 | R N B Q K _ N R 
7 | P P P P _ P P P 
6 | _ _ _ _ _ _ _ _ 
5 | _ _ _ _ P _ _ _ 
4 | _ B P _ _ _ _ _ 
3 | _ _ _ P _ _ _ _ 
2 | P P _ _ P P P P 
1 | R N B Q K B N R 
-------------------
  | A B C D E F G H 

Turn of: white
Succesful move
b1d2
8 | R N B Q K _ N R 
7 | P P P P _ P P P 
6 | _ _ _ _ _ _ _ _ 
5 | _ _ _ _ P _ _ _ 
4 | _ B P _ _ _ _ _ 
3 | _ _ _ P _ _ _ _ 
2 | P P _ N P P P P 
1 | R _ B Q K B N R 
-------------------
  | A B C D E F G H 

Turn of: black
Succesful move
e5e4
8 | R N B Q K _ N R 
7 | P P P P _ P P P 
6 | _ _ _ _ _ _ _ _ 
5 | _ _ _ _ _ _ _ _ 
4 | _ B P _ P _ _ _ 
3 | _ _ _ P _ _ _ _ 
2 | P P _ N P P P P 
1 | R _ B Q K B N R 
-------------------
  | A B C D E F G H 

Turn of: white
Succesful move
d1b3
8 | R N B Q K _ N R 
7 | P P P P _ P P P 
6 | _ _ _ _ _ _ _ _ 
5 | _ _ _ _ _ _ _ _ 
4 | _ B P _ P _ _ _ 
3 | _ Q _ P _ _ _ _ 
2 | P P _ N P P P P 
1 | R _ B _ K B N R 
-------------------
  | A B C D E F G H 

Turn of: black
Succesful move
e4e3
8 | R N B Q K _ N R 
7 | P P P P _ P P P 
6 | _ _ _ _ _ _ _ _ 
5 | _ _ _ _ _ _ _ _ 
4 | _ B P _ _ _ _ _ 
3 | _ Q _ P P _ _ _ 
2 | P P _ N P P P P 
1 | R _ B _ K B N R 
-------------------
  | A B C D E F G H 

Turn of: white
Succesful move
f2f4
8 | R N B Q K _ N R 
7 | P P P P _ P P P 
6 | _ _ _ _ _ _ _ _ 
5 | _ _ _ _ _ _ _ _ 
4 | _ B P _ _ P _ _ 
3 | _ Q _ P P _ _ _ 
2 | P P _ N P _ P P 
1 | R _ B _ K B N R 
-------------------
  | A B C D E F G H 

Turn of: black
Succesful move
d8h4
8 | R N B _ K _ N R 
7 | P P P P _ P P P 
6 | _ _ _ _ _ _ _ _ 
5 | _ _ _ _ _ _ _ _ 
4 | _ B P _ _ P _ Q 
3 | _ Q _ P P _ _ _ 
2 | P P _ N P _ P P 
1 | R _ B _ K B N R 
-------------------
  | A B C D E F G H 

Turn of: white
Succesful move
e1d1
8 | R N B _ K _ N R 
7 | P P P P _ P P P 
6 | _ _ _ _ _ _ _ _ 
5 | _ _ _ _ _ _ _ _ 
4 | _ B P _ _ P _ Q 
3 | _ Q _ P P _ _ _ 
2 | P P _ N P _ P P 
1 | R _ B K _ B N R 
-------------------
  | A B C D E F G H 

Turn of: black
Succesful move
b4a5
8 | R N B _ K _ N R 
7 | P P P P _ P P P 
6 | _ _ _ _ _ _ _ _ 
5 | B _ _ _ _ _ _ _ 
4 | _ _ P _ _ P _ Q 
3 | _ Q _ P P _ _ _ 
2 | P P _ N P _ P P 
1 | R _ B K _ B N R 
-------------------
  | A B C D E F G H 

Turn of: white
Succesful move
h2h3
8 | R N B _ K _ N R 
7 | P P P P _ P P P 
6 | _ _ _ _ _ _ _ _ 
5 | B _ _ _ _ _ _ _ 
4 | _ _ P _ _ P _ Q 
3 | _ Q _ P P _ _ P 
2 | P P _ N P _ P _ 
1 | R _ B K _ B N R 
-------------------
  | A B C D E F G H 

Turn of: black
Succesful move
h4f2
8 | R N B _ K _ N R 
7 | P P P P _ P P P 
6 | _ _ _ _ _ _ _ _ 
5 | B _ _ _ _ _ _ _ 
4 | _ _ P _ _ P _ _ 
3 | _ Q _ P P _ _ P 
2 | P P _ N P Q P _ 
1 | R _ B K _ B N R 
-------------------
  | A B C D E F G H 

Turn of: white
Succesful move
f4f5
8 | R N B _ K _ N R 
7 | P P P P _ P P P 
6 | _ _ _ _ _ _ _ _ 
5 | B _ _ _ _ P _ _ 
4 | _ _ P _ _ _ _ _ 
3 | _ Q _ P P _ _ P 
2 | P P _ N P Q P _ 
1 | R _ B K _ B N R 
-------------------
  | A B C D E F G H 

Turn of: black
Succesful move
f2f1
8 | R N B _ K _ N R 
7 | P P P P _ P P P 
6 | _ _ _ _ _ _ _ _ 
5 | B _ _ _ _ P _ _ 
4 | _ _ P _ _ _ _ _ 
3 | _ Q _ P P _ _ P 
2 | P P _ N P _ P _ 
1 | R _ B K _ Q N R 
-------------------
  | A B C D E F G H 

Turn of: white
Succesful move
d2f1
8 | R N B _ K _ N R 
7 | P P P P _ P P P 
6 | _ _ _ _ _ _ _ _ 
5 | B _ _ _ _ P _ _ 
4 | _ _ P _ _ _ _ _ 
3 | _ Q _ P P _ _ P 
2 | P P _ _ P _ P _ 
1 | R _ B K _ N N R 
-------------------
  | A B C D E F G H 

Turn of: black
Succesful move
h7h5
8 | R N B _ K _ N R 
7 | P P P P _ P P _ 
6 | _ _ _ _ _ _ _ _ 
5 | B _ _ _ _ P _ P 
4 | _ _ P _ _ _ _ _ 
3 | _ Q _ P P _ _ P 
2 | P P _ _ P _ P _ 
1 | R _ B K _ N N R 
-------------------
  | A B C D E F G H 

Turn of: white
Succesful move
b3c3
8 | R N B _ K _ N R 
7 | P P P P _ P P _ 
6 | _ _ _ _ _ _ _ _ 
5 | B _ _ _ _ P _ P 
4 | _ _ P _ _ _ _ _ 
3 | _ _ Q P P _ _ P 
2 | P P _ _ P _ P _ 
1 | R _ B K _ N N R 
-------------------
  | A B C D E F G H 

Turn of: black
Succesful move
a5b6
8 | R N B _ K _ N R 
7 | P P P P _ P P _ 
6 | _ B _ _ _ _ _ _ 
5 | _ _ _ _ _ P _ P 
4 | _ _ P _ _ _ _ _ 
3 | _ _ Q P P _ _ P 
2 | P P _ _ P _ P _ 
1 | R _ B K _ N N R 
-------------------
  | A B C D E F G H 

Turn of: white
Succesful move
d1c2
8 | R N B _ K _ N R 
7 | P P P P _ P P _ 
6 | _ B _ _ _ _ _ _ 
5 | _ _ _ _ _ P _ P 
4 | _ _ P _ _ _ _ _ 
3 | _ _ Q P P _ _ P 
2 | P P K _ P _ P _ 
1 | R _ B _ _ N N R 
-------------------
  | A B C D E F G H 

Turn of: black
Succesful move
g7g5
8 | R N B _ K _ N R 
7 | P P P P _ P _ _ 
6 | _ B _ _ _ _ _ _ 
5 | _ _ _ _ _ P P P 
4 | _ _ P _ _ _ _ _ 
3 | _ _ Q P P _ _ P 
2 | P P K _ P _ P _ 
1 | R _ B _ _ N N R 
-------------------
  | A B C D E F G H 

We are playing as White
Move history:
c2c4
e7e5
d2d3
[...]
3 | _ _ _ P B _ _ P 
2 | P P K _ _ _ P _ 
1 | _ R _ _ _ _ _ _ 
-------------------
  | A B C D E F G H 

Turn of: black
Succesful move
e3g5
8 | R N B _ K _ _ _ 
7 | P P P P _ P _ R 
6 | _ _ _ _ _ N _ _ 
5 | _ _ _ _ _ P B P 
4 | _ _ P _ _ _ _ _ 
3 | _ _ _ P _ _ _ P 
2 | P P K _ _ _ P _ 
1 | _ R _ _ _ _ _ _ 
-------------------
  | A B C D E F G H 

Turn of: white
Succesful move
a2a3
8 | R N B _ K _ _ _ 
7 | P P P P _ P _ R 
6 | _ _ _ _ _ N _ _ 
5 | _ _ _ _ _ P B P 
4 | _ _ P _ _ _ _ _ 
3 | P _ _ P _ _ _ P 
2 | _ P K _ _ _ P _ 
1 | _ R _ _ _ _ _ _ 
-------------------
  | A B C D E F G H 

Turn of: black
Succesful move
a7a5
8 | R N B _ K _ _ _ 
7 | _ P P P _ P _ R 
6 | _ _ _ _ _ N _ _ 
5 | P _ _ _ _ P B P 
4 | _ _ P _ _ _ _ _ 
3 | P _ _ P _ _ _ P 
2 | _ P K _ _ _ P _ 
1 | _ R _ _ _ _ _ _ 
-------------------
  | A B C D E F G H 

Turn of: white
Succesful move
b1c1
8 | R N B _ K _ _ _ 
7 | _ P P P _ P _ R 
6 | _ _ _ _ _ N _ _ 
5 | P _ _ _ _ P B P 
4 | _ _ P _ _ _ _ _ 
3 | P _ _ P _ _ _ P 
2 | _ P K _ _ _ P _ 
1 | _ _ R _ _ _ _ _ 
-------------------
  | A B C D E F G H 

Turn of: black
Succesful move
g5f4
8 | R N B _ K _ _ _ 
7 | _ P P P _ P _ R 
6 | _ _ _ _ _ N _ _ 
5 | P _ _ _ _ P _ P 
4 | _ _ P _ _ B _ _ 
3 | P _ _ P _ _ _ P 
2 | _ P K _ _ _ P _ 
1 | _ _ R _ _ _ _ _ 
-------------------
  | A B C D E F G H 

Turn of: white
Succesful move
c2c3
8 | R N B _ K _ _ _ 
7 | _ P P P _ P _ R 
6 | _ _ _ _ _ N _ _ 
5 | P _ _ _ _ P _ P 
4 | _ _ P _ _ B _ _ 
3 | P _ K P _ _ _ P 
2 | _ P _ _ _ _ P _ 
1 | _ _ R _ _ _ _ _ 
-------------------
  | A B C D E F G H 

Turn of: black
Succesful move
f4e5
8 | R N B _ K _ _ _ 
7 | _ P P P _ P _ R 
6 | _ _ _ _ _ N _ _ 
5 | P _ _ _ B P _ P 
4 | _ _ P _ _ _ _ _ 
3 | P _ K P _ _ _ P 
2 | _ P _ _ _ _ P _ 
1 | _ _ R _ _ _ _ _ 
-------------------
  | A B C D E F G H 

Turn of: white
Succesful move
c3d2
8 | R N B _ K _ _ _ 
7 | _ P P P _ P _ R 
6 | _ _ _ _ _ N _ _ 
5 | P _ _ _ B P _ P 
4 | _ _ P _ _ _ _ _ 
3 | P _ _ P _ _ _ P 
2 | _ P _ K _ _ P _ 
1 | _ _ R _ _ _ _ _ 
-------------------
  | A B C D E F G H 

Turn of: black
Succesful move
e5f4
8 | R N B _ K _ _ _ 
7 | _ P P P _ P _ R 
6 | _ _ _ _ _ N _ _ 
5 | P _ _ _ _ P _ P 
4 | _ _ P _ _ B _ _ 
3 | P _ _ P _ _ _ P 
2 | _ P _ K _ _ P _ 
1 | _ _ R _ _ _ _ _ 
-------------------
  | A B C D E F G H 

Turn of: white
Succesful move
d2e1
8 | R N B _ K _ _ _ 
7 | _ P P P _ P _ R 
6 | _ _ _ _ _ N _ _ 
5 | P _ _ _ _ P _ P 
4 | _ _ P _ _ B _ _ 
3 | P _ _ P _ _ _ P 
2 | _ P _ _ _ _ P _ 
1 | _ _ R _ K _ _ _ 
-------------------
  | A B C D E F G H 

Turn of: black
Succesful move
f4g3
8 | R N B _ K _ _ _ 
7 | _ P P P _ P _ R 
6 | _ _ _ _ _ N _ _ 
5 | P _ _ _ _ P _ P 
4 | _ _ P _ _ _ _ _ 
3 | P _ _ P _ _ B P 
2 | _ P _ _ _ _ P _ 
1 | _ _ R _ K _ _ _ 
-------------------
  | A B C D E F G H 

Turn of: white
Succesful move
e1d1
8 | R N B _ K _ _ _ 
7 | _ P P P _ P _ R 
6 | _ _ _ _ _ N _ _ 
5 | P _ _ _ _ P _ P 
4 | _ _ P _ _ _ _ _ 
3 | P _ _ P _ _ B P 
2 | _ P _ _ _ _ P _ 
1 | _ _ R K _ _ _ _ 
-------------------
  | A B C D E F G H 

Turn of: black
Succesful move
a5a4
8 | R N B _ K _ _ _ 
7 | _ P P P _ P _ R 
6 | _ _ _ _ _ N _ _ 
5 | _ _ _ _ _ P _ P 
4 | P _ P _ _ _ _ _ 
3 | P _ _ P _ _ B P 
2 | _ P _ _ _ _ P _ 
1 | _ _ R K _ _ _ _ 
-------------------
  | A B C D E F G H 

Turn of: white
Succesful move
c1c3
8 | R N B _ K _ _ _ 
7 | _ P P P _ P _ R 
6 | _ _ _ _ _ N _ _ 
5 | _ _ _ _ _ P _ P 
4 | P _ P _ _ _ _ _ 
3 | P _ R P _ _ B P 
2 | _ P _ _ _ _ P _ 
1 | _ _ _ K _ _ _ _ 
-------------------
  | A B C D E F G H 

Turn of: black
Succesful move
g3e5
8 | R N B _ K _ _ _ 
7 | _ P P P _ P _ R 
6 | _ _ _ _ _ N _ _ 
5 | _ _ _ _ B P _ P 
4 | P _ P _ _ _ _ _ 
3 | P _ R P _ _ _ P 
2 | _ P _ _ _ _ P _ 
1 | _ _ _ K _ _ _ _ 
-------------------
  | A B C D E F G H 

Turn of: white
Succesful move
d1d2
8 | R N B _ K _ _ _ 
7 | _ P P P _ P _ R 
6 | _ _ _ _ _ N _ _ 
5 | _ _ _ _ B P _ P 
4 | P _ P _ _ _ _ _ 
3 | P _ R P _ _ _ P 
2 | _ P _ K _ _ P _ 
1 | _ _ _ _ _ _ _ _ 
-------------------
  | A B C D E F G H 

Turn of: black
Succesful move
e5f4
8 | R N B _ K _ _ _ 
7 | _ P P P _ P _ R 
6 | _ _ _ _ _ N _ _ 
5 | _ _ _ _ _ P _ P 
4 | P _ P _ _ B _ _ 
3 | P _ R P _ _ _ P 
2 | _ P _ K _ _ P _ 
1 | _ _ _ _ _ _ _ _ 
-------------------
  | A B C D E F G H 

Turn of: white
Succesful move
d2e2
8 | R N B _ K _ _ _ 
7 | _ P P P _ P _ R 
6 | _ _ _ _ _ N _ _ 
5 | _ _ _ _ _ P _ P 
4 | P _ P _ _ B _ _ 
3 | P _ R P _ _ _ P 
2 | _ P _ _ K _ P _ 
1 | _ _ _ _ _ _ _ _ 
-------------------
  | A B C D E F G H 

Turn of: black
Succesful move
h5h4
8 | R N B _ K _ _ _ 
7 | _ P P P _ P _ R 
6 | _ _ _ _ _ N _ _ 
5 | _ _ _ _ _ P _ _ 
4 | P _ P _ _ B _ P 
3 | P _ R P _ _ _ P 
2 | _ P _ _ K _ P _ 
1 | _ _ _ _ _ _ _ _ 
-------------------
  | A B C D E F G H 

Turn of: white
Succesful move
b2b3
8 | R N B _ K _ _ _ 
7 | _ P P P _ P _ R 
6 | _ _ _ _ _ N _ _ 
5 | _ _ _ _ _ P _ _ 
4 | P _ P _ _ B _ P 
3 | P P R P _ _ _ P 
2 | _ _ _ _ K _ P _ 
1 | _ _ _ _ _ _ _ _ 
-------------------
  | A B C D E F G H 

Turn of: black
Succesful move
b7b6
8 | R N B _ K _ _ _ 
7 | _ _ P P _ P _ R 
6 | _ P _ _ _ N _ _ 
5 | _ _ _ _ _ P _ _ 
4 | P _ P _ _ B _ P 
3 | P P R P _ _ _ P 
2 | _ _ _ _ K _ P _ 
1 | _ _ _ _ _ _ _ _ 
-------------------
  | A B C D E F G H 

Turn of: white
Succesful move
c4c5
8 | R N B _ K _ _ _ 
7 | _ _ P P _ P _ R 
6 | _ P _ _ _ N _ _ 
5 | _ _ P _ _ P _ _ 
4 | P _ _ _ _ B _ P 
3 | P P R P _ _ _ P 
2 | _ _ _ _ K _ P _ 
1 | _ _ _ _ _ _ _ _ 
-------------------
  | A B C D E F G H 

Turn of: black
Succesful move
b6b5
8 | R N B _ K _ _ _ 
7 | _ _ P P _ P _ R 
6 | _ _ _ _ _ N _ _ 
5 | _ P P _ _ P _ _ 
4 | P _ _ _ _ B _ P 
3 | P P R P _ _ _ P 
2 | _ _ _ _ K _ P _ 
1 | _ _ _ _ _ _ _ _ 
-------------------
  | A B C D E F G H 

Turn of: white
Succesful move
c3c4
8 | R N B _ K _ _ _ 
7 | _ _ P P _ P _ R 
6 | _ _ _ _ _ N _ _ 
5 | _ P P _ _ P _ _ 
4 | P _ R _ _ B _ P 
3 | P P _ P _ _ _ P 
2 | _ _ _ _ K _ P _ 
1 | _ _ _ _ _ _ _ _ 
-------------------
  | A B C D E F G H 

Turn of: black
Succesful move
b5c4
8 | R N B _ K _ _ _ 
7 | _ _ P P _ P _ R 
6 | _ _ _ _ _ N _ _ 
5 | _ _ P _ _ P _ _ 
4 | P _ P _ _ B _ P 
3 | P P _ P _ _ _ P 
2 | _ _ _ _ K _ P _ 
1 | _ _ _ _ _ _ _ _ 
-------------------
  | A B C D E F G H 

Turn of: white
Succesful move
e2f2
8 | R N B _ K _ _ _ 
7 | _ _ P P _ P _ R 
6 | _ _ _ _ _ N _ _ 
5 | _ _ P _ _ P _ _ 
4 | P _ P _ _ B _ P 
3 | P P _ P _ _ _ P 
2 | _ _ _ _ _ K P _ 
1 | _ _ _ _ _ _ _ _ 
-------------------
  | A B C D E F G H 

Turn of: black
Succesful move
f6e4
8 | R N B _ K _ _ _ 
7 | _ _ P P _ P _ R 
6 | _ _ _ _ _ _ _ _ 
5 | _ _ P _ _ P _ _ 
4 | P _ P _ N B _ P 
3 | P P _ P _ _ _ P 
2 | _ _ _ _ _ K P _ 
1 | _ _ _ _ _ _ _ _ 
-------------------
  | A B C D E F G H 

Turn of: white
Succesful move
f2f3
8 | R N B _ K _ _ _ 
7 | _ _ P P _ P _ R 
6 | _ _ _ _ _ _ _ _ 
5 | _ _ P _ _ P _ _ 
4 | P _ P _ N B _ P 
3 | P P _ P _ K _ P 
2 | _ _ _ _ _ _ P _ 
1 | _ _ _ _ _ _ _ _ 
-------------------
  | A B C D E F G H 

Turn of: black
Succesful move
e4g5
8 | R N B _ K _ _ _ 
7 | _ _ P P _ P _ R 
6 | _ _ _ _ _ _ _ _ 
5 | _ _ P _ _ P N _ 
4 | P _ P _ _ B _ P 
3 | P P _ P _ K _ P 
2 | _ _ _ _ _ _ P _ 
1 | _ _ _ _ _ _ _ _ 
-------------------
  | A B C D E F G H 

Turn of: white
Succesful move
f3f2
8 | R N B _ K _ _ _ 
7 | _ _ P P _ P _ R 
6 | _ _ _ _ _ _ _ _ 
5 | _ _ P _ _ P N _ 
4 | P _ P _ _ B _ P 
3 | P P _ P _ _ _ P 
2 | _ _ _ _ _ K P _ 
1 | _ _ _ _ _ _ _ _ 
-------------------
  | A B C D E F G H 

Turn of: black
Succesful move
g5h3
8 | R N B _ K _ _ _ 
7 | _ _ P P _ P _ R 
6 | _ _ _ _ _ _ _ _ 
5 | _ _ P _ _ P _ _ 
4 | P _ P _ _ B _ P 
3 | P P _ P _ _ _ N 
2 | _ _ _ _ _ K P _ 
1 | _ _ _ _ _ _ _ _ 
-------------------
  | A B C D E F G H 

Turn of: white
Succesful move
f2f3
8 | R N B _ K _ _ _ 
7 | _ _ P P _ P _ R 
6 | _ _ _ _ _ _ _ _ 
5 | _ _ P _ _ P _ _ 
4 | P _ P _ _ B _ P 
3 | P P _ P _ K _ N 
2 | _ _ _ _ _ _ P _ 
1 | _ _ _ _ _ _ _ _ 
-------------------
  | A B C D E F G H 

Turn of: black
Succesful move
h3g1
8 | R N B _ K _ _ _ 
7 | _ _ P P _ P _ R 
6 | _ _ _ _ _ _ _ _ 
5 | _ _ P _ _ P _ _ 
4 | P _ P _ _ B _ P 
3 | P P _ P _ K _ _ 
2 | _ _ _ _ _ _ P _ 
1 | _ _ _ _ _ _ N _ 
-------------------
  | A B C D E F G H 

Turn of: white
Succesful move
f3f2
8 | R N B _ K _ _ _ 
7 | _ _ P P _ P _ R 
6 | _ _ _ _ _ _ _ _ 
5 | _ _ P _ _ P _ _ 
4 | P _ P _ _ B _ P 
3 | P P _ P _ _ _ _ 
2 | _ _ _ _ _ K P _ 
1 | _ _ _ _ _ _ N _ 
-------------------
  | A B C D E F G H 

Turn of: black
Succesful move
g1h3
8 | R N B _ K _ _ _ 
7 | _ _ P P _ P _ R 
6 | _ _ _ _ _ _ _ _ 
5 | _ _ P _ _ P _ _ 
4 | P _ P _ _ B _ P 
3 | P P _ P _ _ _ N 
2 | _ _ _ _ _ K P _ 
1 | _ _ _ _ _ _ _ _ 
-------------------
  | A B C D E F G H 

Turn of: white
Succesful move
g2h3
8 | R N B _ K _ _ _ 
7 | _ _ P P _ P _ R 
6 | _ _ _ _ _ _ _ _ 
5 | _ _ P _ _ P _ _ 
4 | P _ P _ _ B _ P 
3 | P P _ P _ _ _ P 
2 | _ _ _ _ _ K _ _ 
1 | _ _ _ _ _ _ _ _ 
-------------------
  | A B C D E F G H 

Turn of: black
Succesful move
c4b3
8 | R N B _ K _ _ _ 
7 | _ _ P P _ P _ R 
6 | _ _ _ _ _ _ _ _ 
5 | _ _ P _ _ P _ _ 
4 | P _ _ _ _ B _ P 
3 | P P _ P _ _ _ P 
2 | _ _ _ _ _ K _ _ 
1 | _ _ _ _ _ _ _ _ 
-------------------
  | A B C D E F G H 

Turn of: white
Succesful move
f2f3
8 | R N B _ K _ _ _ 
7 | _ _ P P _ P _ R 
6 | _ _ _ _ _ _ _ _ 
5 | _ _ P _ _ P _ _ 
4 | P _ _ _ _ B _ P 
3 | P P _ P _ K _ P 
2 | _ _ _ _ _ _ _ _ 
1 | _ _ _ _ _ _ _ _ 
-------------------
  | A B C D E F G H 

Turn of: black
Succesful move
c8b7
8 | R N _ _ K _ _ _ 
7 | _ B P P _ P _ R 
6 | _ _ _ _ _ _ _ _ 
5 | _ _ P _ _ P _ _ 
4 | P _ _ _ _ B _ P 
3 | P P _ P _ K _ P 
2 | _ _ _ _ _ _ _ _ 
1 | _ _ _ _ _ _ _ _ 
-------------------
  | A B C D E F G H 

Turn of: white
Succesful move
c5c6
8 | R N _ _ K _ _ _ 
7 | _ B P P _ P _ R 
6 | _ _ P _ _ _ _ _ 
5 | _ _ _ _ _ P _ _ 
4 | P _ _ _ _ B _ P 
3 | P P _ P _ K _ P 
2 | _ _ _ _ _ _ _ _ 
1 | _ _ _ _ _ _ _ _ 
-------------------
  | A B C D E F G H 

Turn of: black
Succesful move
b7c6
8 | R N _ _ K _ _ _ 
7 | _ _ P P _ P _ R 
6 | _ _ B _ _ _ _ _ 
5 | _ _ _ _ _ P _ _ 
4 | P _ _ _ _ B _ P 
3 | P P _ P _ K _ P 
2 | _ _ _ _ _ _ _ _ 
1 | _ _ _ _ _ _ _ _ 
-------------------
  | A B C D E F G H 

Turn of: white
Succesful move
f3e2
8 | R N _ _ K _ _ _ 
7 | _ _ P P _ P _ R 
6 | _ _ B _ _ _ _ _ 
5 | _ _ _ _ _ P _ _ 
4 | P _ _ _ _ B _ P 
3 | P P _ P _ _ _ P 
2 | _ _ _ _ K _ _ _ 
1 | _ _ _ _ _ _ _ _ 
-------------------
  | A B C D E F G H 

Turn of: black
Succesful move
b3b2
8 | R N _ _ K _ _ _ 
7 | _ _ P P _ P _ R 
6 | _ _ B _ _ _ _ _ 
5 | _ _ _ _ _ P _ _ 
4 | P _ _ _ _ B _ P 
3 | P _ _ P _ _ _ P 
2 | _ P _ _ K _ _ _ 
1 | _ _ _ _ _ _ _ _ 
-------------------
  | A B C D E F G H 

Turn of: white
Succesful move
e2f1
8 | R N _ _ K _ _ _ 
7 | _ _ P P _ P _ R 
6 | _ _ B _ _ _ _ _ 
5 | _ _ _ _ _ P _ _ 
4 | P _ _ _ _ B _ P 
3 | P _ _ P _ _ _ P 
2 | _ P _ _ _ _ _ _ 
1 | _ _ _ _ _ K _ _ 
-------------------
  | A B C D E F G H 

Turn of: black
Succesful move
b2b1q
8 | R N _ _ K _ _ _ 
7 | _ _ P P _ P _ R 
6 | _ _ B _ _ _ _ _ 
5 | _ _ _ _ _ P _ _ 
4 | P _ _ _ _ B _ P 
3 | P _ _ P _ _ _ P 
2 | _ _ _ _ _ _ _ _ 
1 | _ Q _ _ _ K _ _ 
-------------------
  | A B C D E F G H 

Turn of: white
Succesful move
f1f2
8 | R N _ _ K _ _ _ 
7 | _ _ P P _ P _ R 
6 | _ _ B _ _ _ _ _ 
5 | _ _ _ _ _ P _ _ 
4 | P _ _ _ _ B _ P 
3 | P _ _ P _ _ _ P 
2 | _ _ _ _ _ K _ _ 
1 | _ Q _ _ _ _ _ _ 
-------------------
  | A B C D E F G H 

Turn of: black
Succesful move
b1b6
8 | R N _ _ K _ _ _ 
7 | _ _ P P _ P _ R 
6 | _ Q B _ _ _ _ _ 
5 | _ _ _ _ _ P _ _ 
4 | P _ _ _ _ B _ P 
3 | P _ _ P _ _ _ P 
2 | _ _ _ _ _ K _ _ 
1 | _ _ _ _ _ _ _ _ 
-------------------
  | A B C D E F G H 

Turn of: white
Succesful move
f2e1
8 | R N _ _ K _ _ _ 
7 | _ _ P P _ P _ R 
6 | _ Q B _ _ _ _ _ 
5 | _ _ _ _ _ P _ _ 
4 | P _ _ _ _ B _ P 
3 | P _ _ P _ _ _ P 
2 | _ _ _ _ _ _ _ _ 
1 | _ _ _ _ K _ _ _ 
-------------------
  | A B C D E F G H 

Turn of: black
Succesful move
b6e3
8 | R N _ _ K _ _ _ 
7 | _ _ P P _ P _ R 
6 | _ _ B _ _ _ _ _ 
5 | _ _ _ _ _ P _ _ 
4 | P _ _ _ _ B _ P 
3 | P _ _ P Q _ _ P 
2 | _ _ _ _ _ _ _ _ 
1 | _ _ _ _ K _ _ _ 
-------------------
  | A B C D E F G H 

Turn of: white
Succesful move
e1f1
8 | R N _ _ K _ _ _ 
7 | _ _ P P _ P _ R 
6 | _ _ B _ _ _ _ _ 
5 | _ _ _ _ _ P _ _ 
4 | P _ _ _ _ B _ P 
3 | P _ _ P Q _ _ P 
2 | _ _ _ _ _ _ _ _ 
1 | _ _ _ _ _ K _ _ 
-------------------
  | A B C D E F G H 

Turn of: black
Succesful move
e3h3
8 | R N _ _ K _ _ _ 
7 | _ _ P P _ P _ R 
6 | _ _ B _ _ _ _ _ 
5 | _ _ _ _ _ P _ _ 
4 | P _ _ _ _ B _ P 
3 | P _ _ P _ _ _ Q 
2 | _ _ _ _ _ _ _ _ 
1 | _ _ _ _ _ K _ _ 
-------------------
  | A B C D E F G H 

Turn of: white
Succesful move
f1e2
8 | R N _ _ K _ _ _ 
7 | _ _ P P _ P _ R 
6 | _ _ B _ _ _ _ _ 
5 | _ _ _ _ _ P _ _ 
4 | P _ _ _ _ B _ P 
3 | P _ _ P _ _ _ Q 
2 | _ _ _ _ K _ _ _ 
1 | _ _ _ _ _ _ _ _ 
-------------------
  | A B C D E F G H 

Turn of: black
Succesful move
h3g2
8 | R N _ _ K _ _ _ 
7 | _ _ P P _ P _ R 
6 | _ _ B _ _ _ _ _ 
5 | _ _ _ _ _ P _ _ 
4 | P _ _ _ _ B _ P 
3 | P _ _ P _ _ _ _ 
2 | _ _ _ _ K _ Q _ 
1 | _ _ _ _ _ _ _ _ 
-------------------
  | A B C D E F G H 

Turn of: white
Succesful move
e2e1
8 | R N _ _ K _ _ _ 
7 | _ _ P P _ P _ R 
6 | _ _ B _ _ _ _ _ 
5 | _ _ _ _ _ P _ _ 
4 | P _ _ _ _ B _ P 
3 | P _ _ P _ _ _ _ 
2 | _ _ _ _ _ _ Q _ 
1 | _ _ _ _ K _ _ _ 
-------------------
  | A B C D E F G H 

Turn of: black
Succesful move
g2g1
8 | R N _ _ K _ _ _ 
7 | _ _ P P _ P _ R 
6 | _ _ B _ _ _ _ _ 
5 | _ _ _ _ _ P _ _ 
4 | P _ _ _ _ B _ P 
3 | P _ _ P _ _ _ _ 
2 | _ _ _ _ _ _ _ _ 
1 | _ _ _ _ K _ Q _ 
-------------------
  | A B C D E F G H 

Turn of: white
Succesful move
e1e2
8 | R N _ _ K _ _ _ 
7 | _ _ P P _ P _ R 
6 | _ _ B _ _ _ _ _ 
5 | _ _ _ _ _ P _ _ 
4 | P _ _ _ _ B _ P 
3 | P _ _ P _ _ _ _ 
2 | _ _ _ _ K _ _ _ 
1 | _ _ _ _ _ _ Q _ 
-------------------
  | A B C D E F G H 

Turn of: black
Succesful move
g1h2
8 | R N _ _ K _ _ _ 
7 | _ _ P P _ P _ R 
6 | _ _ B _ _ _ _ _ 
5 | _ _ _ _ _ P _ _ 
4 | P _ _ _ _ B _ P 
3 | P _ _ P _ _ _ _ 
2 | _ _ _ _ K _ _ Q 
1 | _ _ _ _ _ _ _ _ 
-------------------
  | A B C D E F G H 

Turn of: white
Succesful move
e2f1
8 | R N _ _ K _ _ _ 
7 | _ _ P P _ P _ R 
6 | _ _ B _ _ _ _ _ 
5 | _ _ _ _ _ P _ _ 
4 | P _ _ _ _ B _ P 
3 | P _ _ P _ _ _ _ 
2 | _ _ _ _ _ _ _ Q 
1 | _ _ _ _ _ K _ _ 
-------------------
  | A B C D E F G H 

Turn of: black
Succesful move
h2h3
8 | R N _ _ K _ _ _ 
7 | _ _ P P _ P _ R 
6 | _ _ B _ _ _ _ _ 
5 | _ _ _ _ _ P _ _ 
4 | P _ _ _ _ B _ P 
3 | P _ _ P _ _ _ Q 
2 | _ _ _ _ _ _ _ _ 
1 | _ _ _ _ _ K _ _ 
-------------------
  | A B C D E F G H 

Turn of: white
Succesful move
f1e1
8 | R N _ _ K _ _ _ 
7 | _ _ P P _ P _ R 
6 | _ _ B _ _ _ _ _ 
5 | _ _ _ _ _ P _ _ 
4 | P _ _ _ _ B _ P 
3 | P _ _ P _ _ _ Q 
2 | _ _ _ _ _ _ _ _ 
1 | _ _ _ _ K _ _ _ 
-------------------
  | A B C D E F G H 

Turn of: black
Succesful move
h3h1
8 | R N _ _ K _ _ _ 
7 | _ _ P P _ P _ R 
6 | _ _ B _ _ _ _ _ 
5 | _ _ _ _ _ P _ _ 
4 | P _ _ _ _ B _ P 
3 | P _ _ P _ _ _ _ 
2 | _ _ _ _ _ _ _ _ 
1 | _ _ _ _ K _ _ Q 
-------------------
  | A B C D E F G H 

Turn of: white
Succesful move
e1e2
8 | R N _ _ K _ _ _ 
7 | _ _ P P _ P _ R 
6 | _ _ B _ _ _ _ _ 
5 | _ _ _ _ _ P _ _ 
4 | P _ _ _ _ B _ P 
3 | P _ _ P _ _ _ _ 
2 | _ _ _ _ K _ _ _ 
1 | _ _ _ _ _ _ _ Q 
-------------------
  | A B C D E F G H 

Turn of: black
Succesful move
h1g2
8 | R N _ _ K _ _ _ 
7 | _ _ P P _ P _ R 
6 | _ _ B _ _ _ _ _ 
5 | _ _ _ _ _ P _ _ 
4 | P _ _ _ _ B _ P 
3 | P _ _ P _ _ _ _ 
2 | _ _ _ _ K _ Q _ 
1 | _ _ _ _ _ _ _ _ 
-------------------
  | A B C D E F G H 

We are playing as White
Move history:
c2c4
e7e5
d2d3
f8b4
b1d2
e5e4
d1b3
e4e3
f2f4
d8h4
e1d1
b4a5
h2h3
h4f2
f4f5
f2f1
d2f1
h7h5
b3c3
a5b6
d1c2
g7g5
a1b1
h8h7
f1d2
e3d2
c3f6
d2d1q
c2d1
g8f6
h1h2
b6g1
c1g5
g1h2
d1c1
h2f4
e2e3
f4e3
c1c2
e3g5
a2a3
a7a5
b1c1
g5f4
c2c3
f4e5
c3d2
e5f4
d2e1
f4g3
e1d1
a5a4
c1c3
g3e5
d1d2
e5f4
d2e2
h5h4
b2b3
b7b6
c4c5
b6b5
c3c4
b5c4
e2f2
f6e4
f2f3
e4g5
f3f2
g5h3
f2f3
h3g1
f3f2
g1h3
g2h3
c4b3
f2f3
c8b7
c5c6
b7c6
f3e2
b3b2
e2f1
b2b1q
f1f2
b1b6
f2e1
b6e3
e1f1
e3h3
f1e2
h3g2
e2e1
g2g1
e1e2
g1h2
e2f1
h2h3
f1e1
h3h1
e1e2
h1g2
8 | R N _ _ K _ _ _ 
7 | _ _ P P _ P _ R 
6 | _ _ B _ _ _ _ _ 
5 | _ _ _ _ _ P _ _ 
4 | P _ _ _ _ B _ P 
3 | P _ _ P _ _ _ _ 
2 | _ _ _ _ K _ Q _ 
1 | _ _ _ _ _ _ _ _ 
-------------------
  | A B C D E F G H 

It is white's turn to play.
AI's move: e2d1
Move written: e2d1
[32;1m[Game] [0mPlayer's error code: 0
[32;1m[Game] [0mChecking move validity...
[32;1m[Board] [0mInitializing board...
[32;1m[Board] [0mLoading history file `championship/lizzie-iii-remmato-iii/history.csv`...
[32;1m[Board] [0mLoaded 102 move(s).
[32;1m[Board] [0mLoading move file `championship/lizzie-iii-remmato-iii/move.csv`...
[32;1m[Board] [0mWhite player is playing e2 to d1.
[32;1m[Board] [0m
[32;1m[Board] [0m    a b c d e f g h 
[32;1m[Board] [0m  -------------------
[32;1m[Board] [0m8 ||[30;1mr[0m|[30;1mk[0m|[7;1m [0m| |[30;1mK[0m| |[7;1m [0m| || 8
[32;1m[Board] [0m  -------------------
[32;1m[Board] [0m7 || |[7;1m [0m|[30;1mp[0m|[30;1mp[0m| |[30;1mp[0m| |[30;1mr[0m|| 7
[32;1m[Board] [0m  -------------------
[32;1m[Board] [0m6 ||[7;1m [0m| |[30;1mb[0m| |[7;1m [0m| |[7;1m [0m| || 6
[32;1m[Board] [0m  -------------------
[32;1m[Board] [0m5 || |[7;1m [0m| |[7;1m [0m| |[0;1mp[0m| |[7;1m [0m|| 5
[32;1m[Board] [0m  -------------------
[32;1m[Board] [0m4 ||[30;1mp[0m| |[7;1m [0m| |[7;1m [0m|[30;1mb[0m|[7;1m [0m|[30;1mp[0m|| 4
[32;1m[Board] [0m  -------------------
[32;1m[Board] [0m3 ||[0;1mp[0m|[7;1m [0m| |[0;1mp[0m| |[7;1m [0m| |[7;1m [0m|| 3
[32;1m[Board] [0m  -------------------
[32;1m[Board] [0m2 ||[7;1m [0m| |[7;1m [0m| |[7;1m [0m| |[30;1mQ[0m| || 2
[32;1m[Board] [0m  -------------------
[32;1m[Board] [0m1 || |[7;1m [0m| |[0;1mK[0m| |[7;1m [0m| |[7;1m [0m|| 1
[32;1m[Board] [0m  -------------------
[32;1m[Board] [0m    a b c d e f g h
[32;1m[Board] [0m
[32;1m[Referee] [0mThis is the turn of the Black player...
Error: /data/julien/Pro/git/teaching/x/2024/remmato-iii/build/bin/../resources/openings does not exist or is not a directory
[32;1m[Game] [0mPlayer's error code: 0
[32;1m[Game] [0mChecking move validity...
[32;1m[Board] [0mInitializing board...
[32;1m[Board] [0mLoading history file `championship/lizzie-iii-remmato-iii/history.csv`...
[32;1m[Board] [0mLoaded 103 move(s).
[32;1m[Board] [0mLoading move file `championship/lizzie-iii-remmato-iii/move.csv`...
[32;1m[Board] [0mBlack player is playing g2 to d2.
[32;1m[Board] [0m
[32;1m[Board] [0m    a b c d e f g h 
[32;1m[Board] [0m  -------------------
[32;1m[Board] [0m8 ||[30;1mr[0m|[30;1mk[0m|[7;1m [0m| |[30;1mK[0m| |[7;1m [0m| || 8
[32;1m[Board] [0m  -------------------
[32;1m[Board] [0m7 || |[7;1m [0m|[30;1mp[0m|[30;1mp[0m| |[30;1mp[0m| |[30;1mr[0m|| 7
[32;1m[Board] [0m  -------------------
[32;1m[Board] [0m6 ||[7;1m [0m| |[30;1mb[0m| |[7;1m [0m| |[7;1m [0m| || 6
[32;1m[Board] [0m  -------------------
[32;1m[Board] [0m5 || |[7;1m [0m| |[7;1m [0m| |[0;1mp[0m| |[7;1m [0m|| 5
[32;1m[Board] [0m  -------------------
[32;1m[Board] [0m4 ||[30;1mp[0m| |[7;1m [0m| |[7;1m [0m|[30;1mb[0m|[7;1m [0m|[30;1mp[0m|| 4
[32;1m[Board] [0m  -------------------
[32;1m[Board] [0m3 ||[0;1mp[0m|[7;1m [0m| |[0;1mp[0m| |[7;1m [0m| |[7;1m [0m|| 3
[32;1m[Board] [0m  -------------------
[32;1m[Board] [0m2 ||[7;1m [0m| |[7;1m [0m|[30;1mQ[0m|[7;1m [0m| |[7;1m [0m| || 2
[32;1m[Board] [0m  -------------------
[32;1m[Board] [0m1 || |[7;1m [0m| |[0;1mK[0m| |[7;1m [0m| |[7;1m [0m|| 1
[32;1m[Board] [0m  -------------------
[32;1m[Board] [0m    a b c d e f g h
[32;1m[Board] [0m
[32;1m[Referee] [0mThis is the turn of the White player...
[32;1m[Board] [0m[33;1m[WARNING][0m [5;1mWhite King in checkmate![0m
[32;1m[Board] [0m[33;1m[WARNING][0m The Black player wins!
