[32;1m[Board] [0mInitializing board...
[32;1m[Board] [0m
[32;1m[Board] [0m    a b c d e f g h 
[32;1m[Board] [0m  -------------------
[32;1m[Board] [0m8 ||[30;1mr[0m|[30;1mk[0m|[30;1mb[0m|[30;1mQ[0m|[30;1mK[0m|[30;1mb[0m|[30;1mk[0m|[30;1mr[0m|| 8
[32;1m[Board] [0m  -------------------
[32;1m[Board] [0m7 ||[30;1mp[0m|[30;1mp[0m|[30;1mp[0m|[30;1mp[0m|[30;1mp[0m|[30;1mp[0m|[30;1mp[0m|[30;1mp[0m|| 7
[32;1m[Board] [0m  -------------------
[32;1m[Board] [0m6 ||[7;1m [0m| |[7;1m [0m| |[7;1m [0m| |[7;1m [0m| || 6
[32;1m[Board] [0m  -------------------
[32;1m[Board] [0m5 || |[7;1m [0m| |[7;1m [0m| |[7;1m [0m| |[7;1m [0m|| 5
[32;1m[Board] [0m  -------------------
[32;1m[Board] [0m4 ||[7;1m [0m| |[7;1m [0m| |[7;1m [0m| |[7;1m [0m| || 4
[32;1m[Board] [0m  -------------------
[32;1m[Board] [0m3 || |[7;1m [0m| |[7;1m [0m| |[7;1m [0m| |[7;1m [0m|| 3
[32;1m[Board] [0m  -------------------
[32;1m[Board] [0m2 ||[0;1mp[0m|[0;1mp[0m|[0;1mp[0m|[0;1mp[0m|[0;1mp[0m|[0;1mp[0m|[0;1mp[0m|[0;1mp[0m|| 2
[32;1m[Board] [0m  -------------------
[32;1m[Board] [0m1 ||[0;1mr[0m|[0;1mk[0m|[0;1mb[0m|[0;1mQ[0m|[0;1mK[0m|[0;1mb[0m|[0;1mk[0m|[0;1mr[0m|| 1
[32;1m[Board] [0m  -------------------
[32;1m[Board] [0m    a b c d e f g h
[32;1m[Board] [0m
[32;1m[Referee] [0mThis is the turn of the White player...
Input file: championship/qualifiers/lizzie-iii/White/history.csv
Output file: championship/qualifiers/lizzie-iii/White/move.csv
We are playing as White
Move history:
8 | R N B Q K B N R 
7 | P P P P P P P P 
6 | _ _ _ _ _ _ _ _ 
5 | _ _ _ _ _ _ _ _ 
4 | _ _ _ _ _ _ _ _ 
3 | _ _ _ _ _ _ _ _ 
2 | P P P P P P P P 
1 | R N B Q K B N R 
-------------------
  | A B C D E F G H 

It is white's turn to play.
AI's move: c2c3
Move written: c2c3
[32;1m[Game] [0mPlayer's error code: 0
[32;1m[Game] [0mChecking move validity...
[32;1m[Board] [0mInitializing board...
[32;1m[Board] [0mLoading history file `championship/qualifiers/lizzie-iii/White/history.csv`...
[32;1m[Board] [0mLoaded 0 move(s).
[32;1m[Board] [0mLoading move file `championship/qualifiers/lizzie-iii/White/move.csv`...
[32;1m[Board] [0mWhite player is playing c2 to c3.
[32;1m[Board] [0m
[32;1m[Board] [0m    a b c d e f g h 
[32;1m[Board] [0m  -------------------
[32;1m[Board] [0m8 ||[30;1mr[0m|[30;1mk[0m|[30;1mb[0m|[30;1mQ[0m|[30;1mK[0m|[30;1mb[0m|[30;1mk[0m|[30;1mr[0m|| 8
[32;1m[Board] [0m  -------------------
[32;1m[Board] [0m7 ||[30;1mp[0m|[30;1mp[0m|[30;1mp[0m|[30;1mp[0m|[30;1mp[0m|[30;1mp[0m|[30;1mp[0m|[30;1mp[0m|| 7
[32;1m[Board] [0m  -------------------
[32;1m[Board] [0m6 ||[7;1m [0m| |[7;1m [0m| |[7;1m [0m| |[7;1m [0m| || 6
[32;1m[Board] [0m  -------------------
[32;1m[Board] [0m5 || |[7;1m [0m| |[7;1m [0m| |[7;1m [0m| |[7;1m [0m|| 5
[32;1m[Board] [0m  -------------------
[32;1m[Board] [0m4 ||[7;1m [0m| |[7;1m [0m| |[7;1m [0m| |[7;1m [0m| || 4
[32;1m[Board] [0m  -------------------
[32;1m[Board] [0m3 || |[7;1m [0m|[0;1mp[0m|[7;1m [0m| |[7;1m [0m| |[7;1m [0m|| 3
[32;1m[Board] [0m  -------------------
[32;1m[Board] [0m2 ||[0;1mp[0m|[0;1mp[0m|[7;1m [0m|[0;1mp[0m|[0;1mp[0m|[0;1mp[0m|[0;1mp[0m|[0;1mp[0m|| 2
[32;1m[Board] [0m  -------------------
[32;1m[Board] [0m1 ||[0;1mr[0m|[0;1mk[0m|[0;1mb[0m|[0;1mQ[0m|[0;1mK[0m|[0;1mb[0m|[0;1mk[0m|[0;1mr[0m|| 1
[32;1m[Board] [0m  -------------------
[32;1m[Board] [0m    a b c d e f g h
[32;1m[Board] [0m
[32;1m[Referee] [0mThis is the turn of the Black player...
[32;1m[Board] [0mInitializing board...
[32;1m[Board] [0mLoading history file `championship/qualifiers/lizzie-iii/White/history.csv`...
[32;1m[Board] [0mLoaded 1 move(s).
[32;1m[RandomPlayer] [0mComputing possible moves...
[32;1m[RandomPlayer] [0m20 possible move(s)
[32;1m[RandomPlayer] [0mPlaying random move 13 out of 20
[32;1m[Game] [0mPlayer's error code: 0
[32;1m[Game] [0mChecking move validity...
[32;1m[Board] [0mInitializing board...
[32;1m[Board] [0mLoading history file `championship/qualifiers/lizzie-iii/White/history.csv`...
[32;1m[Board] [0mLoaded 1 move(s).
[32;1m[Board] [0mLoading move file `championship/qualifiers/lizzie-iii/White/move.csv`...
[32;1m[Board] [0mBlack player is playing g7 to g5.
[32;1m[Board] [0m
[32;1m[Board] [0m    a b c d e f g h 
[32;1m[Board] [0m  -------------------
[32;1m[Board] [0m8 ||[30;1mr[0m|[30;1mk[0m|[30;1mb[0m|[30;1mQ[0m|[30;1mK[0m|[30;1mb[0m|[30;1mk[0m|[30;1mr[0m|| 8
[32;1m[Board] [0m  -------------------
[32;1m[Board] [0m7 ||[30;1mp[0m|[30;1mp[0m|[30;1mp[0m|[30;1mp[0m|[30;1mp[0m|[30;1mp[0m| |[30;1mp[0m|| 7
[32;1m[Board] [0m  -------------------
[32;1m[Board] [0m6 ||[7;1m [0m| |[7;1m [0m| |[7;1m [0m| |[7;1m [0m| || 6
[32;1m[Board] [0m  -------------------
[32;1m[Board] [0m5 || |[7;1m [0m| |[7;1m [0m| |[7;1m [0m|[30;1mp[0m|[7;1m [0m|| 5
[32;1m[Board] [0m  -------------------
[32;1m[Board] [0m4 ||[7;1m [0m| |[7;1m [0m| |[7;1m [0m| |[7;1m [0m| || 4
[32;1m[Board] [0m  -------------------
[32;1m[Board] [0m3 || |[7;1m [0m|[0;1mp[0m|[7;1m [0m| |[7;1m [0m| |[7;1m [0m|| 3
[32;1m[Board] [0m  -------------------
[32;1m[Board] [0m2 ||[0;1mp[0m|[0;1mp[0m|[7;1m [0m|[0;1mp[0m|[0;1mp[0m|[0;1mp[0m|[0;1mp[0m|[0;1mp[0m|| 2
[32;1m[Board] [0m  -------------------
[32;1m[Board] [0m1 ||[0;1mr[0m|[0;1mk[0m|[0;1mb[0m|[0;1mQ[0m|[0;1mK[0m|[0;1mb[0m|[0;1mk[0m|[0;1mr[0m|| 1
[32;1m[Board] [0m  -------------------
[32;1m[Board] [0m    a b c d e f g h
[32;1m[Board] [0m
[32;1m[Referee] [0mThis is the turn of the White player...
Input file: championship/qualifiers/lizzie-iii/White/history.csv
Output file: championship/qualifiers/lizzie-iii/White/move.csv
Turn of: white
Succesful move
c2c3
8 | R N B Q K B N R 
7 | P P P P P P P P 
6 | _ _ _ _ _ _ _ _ 
5 | _ _ _ _ _ _ _ _ 
4 | _ _ _ _ _ _ _ _ 
3 | _ _ P _ _ _ _ _ 
2 | P P _ P P P P P 
1 | R N B Q K B N R 
-------------------
  | A B C D E F G H 

Turn of: black
Succesful move
g7g5
8 | R N B Q K B N R 
7 | P P P P P P _ P 
6 | _ _ _ _ _ _ _ _ 
5 | _ _ _ _ _ _ P _ 
4 | _ _ _ _ _ _ _ _ 
3 | _ _ P _ _ _ _ _ 
2 | P P _ P P P P P 
1 | R N B Q K B N R 
-------------------
  | A B C D E F G H 

We are playing as White
Move history:
c2c3
g7g5
8 | R N B Q K B N R 
7 | P P P P P P _ P 
6 | _ _ _ _ _ _ _ _ 
5 | _ _ _ _ _ _ P _ 
4 | _ _ _ _ _ _ _ _ 
3 | _ _ P _ _ _ _ _ 
2 | P P _ P P P P P 
1 | R N B Q K B N R 
-------------------
  | A B C D E F G H 

It is white's turn to play.
AI's move: f2f3
Move written: f2f3
[32;1m[Game] [0mPlayer's error code: 0
[32;1m[Game] [0mChecking move validity...
[32;1m[Board] [0mInitializing board...
[32;1m[Board] [0mLoading history file `championship/qualifiers/lizzie-iii/White/history.csv`...
[32;1m[Board] [0mLoaded 2 move(s).
[32;1m[Board] [0mLoading move file `championship/qualifiers/lizzie-iii/White/move.csv`...
[32;1m[Board] [0mWhite player is playing f2 to f3.
[32;1m[Board] [0m
[32;1m[Board] [0m    a b c d e f g h 
[32;1m[Board] [0m  -------------------
[32;1m[Board] [0m8 ||[30;1mr[0m|[30;1mk[0m|[30;1mb[0m|[30;1mQ[0m|[30;1mK[0m|[30;1mb[0m|[30;1mk[0m|[30;1mr[0m|| 8
[32;1m[Board] [0m  -------------------
[32;1m[Board] [0m7 ||[30;1mp[0m|[30;1mp[0m|[30;1mp[0m|[30;1mp[0m|[30;1mp[0m|[30;1mp[0m| |[30;1mp[0m|| 7
[32;1m[Board] [0m  -------------------
[32;1m[Board] [0m6 ||[7;1m [0m| |[7;1m [0m| |[7;1m [0m| |[7;1m [0m| || 6
[32;1m[Board] [0m  -------------------
[32;1m[Board] [0m5 || |[7;1m [0m| |[7;1m [0m| |[7;1m [0m|[30;1mp[0m|[7;1m [0m|| 5
[32;1m[Board] [0m  -------------------
[32;1m[Board] [0m4 ||[7;1m [0m| |[7;1m [0m| |[7;1m [0m| |[7;1m [0m| || 4
[32;1m[Board] [0m  -------------------
[32;1m[Board] [0m3 || |[7;1m [0m|[0;1mp[0m|[7;1m [0m| |[0;1mp[0m| |[7;1m [0m|| 3
[32;1m[Board] [0m  -------------------
[32;1m[Board] [0m2 ||[0;1mp[0m|[0;1mp[0m|[7;1m [0m|[0;1mp[0m|[0;1mp[0m| |[0;1mp[0m|[0;1mp[0m|| 2
[32;1m[Board] [0m  -------------------
[32;1m[Board] [0m1 ||[0;1mr[0m|[0;1mk[0m|[0;1mb[0m|[0;1mQ[0m|[0;1mK[0m|[0;1mb[0m|[0;1mk[0m|[0;1mr[0m|| 1
[32;1m[Board] [0m  -------------------
[32;1m[Board] [0m    a b c d e f g h
[32;1m[Board] [0m
[32;1m[Referee] [0mThis is the turn of the Black player...
[32;1m[Board] [0mInitializing board...
[32;1m[Board] [0mLoading history file `championship/qualifiers/lizzie-iii/White/history.csv`...
[32;1m[Board] [0mLoaded 3 move(s).
[32;1m[RandomPlayer] [0mComputing possible moves...
[32;1m[RandomPlayer] [0m21 possible move(s)
[32;1m[RandomPlayer] [0mPlaying random move 17 out of 21
[32;1m[Game] [0mPlayer's error code: 0
[32;1m[Game] [0mChecking move validity...
[32;1m[Board] [0mInitializing board...
[32;1m[Board] [0mLoading history file `championship/qualifiers/lizzie-iii/White/history.csv`...
[32;1m[Board] [0mLoaded 3 move(s).
[32;1m[Board] [0mLoading move file `championship/qualifiers/lizzie-iii/White/move.csv`...
[32;1m[Board] [0mBlack player is playing g8 to h6.
[32;1m[Board] [0m
[32;1m[Board] [0m    a b c d e f g h 
[32;1m[Board] [0m  -------------------
[32;1m[Board] [0m8 ||[30;1mr[0m|[30;1mk[0m|[30;1mb[0m|[30;1mQ[0m|[30;1mK[0m|[30;1mb[0m|[7;1m [0m|[30;1mr[0m|| 8
[32;1m[Board] [0m  -------------------
[32;1m[Board] [0m7 ||[30;1mp[0m|[30;1mp[0m|[30;1mp[0m|[30;1mp[0m|[30;1mp[0m|[30;1mp[0m| |[30;1mp[0m|| 7
[32;1m[Board] [0m  -------------------
[32;1m[Board] [0m6 ||[7;1m [0m| |[7;1m [0m| |[7;1m [0m| |[7;1m [0m|[30;1mk[0m|| 6
[32;1m[Board] [0m  -------------------
[32;1m[Board] [0m5 || |[7;1m [0m| |[7;1m [0m| |[7;1m [0m|[30;1mp[0m|[7;1m [0m|| 5
[32;1m[Board] [0m  -------------------
[32;1m[Board] [0m4 ||[7;1m [0m| |[7;1m [0m| |[7;1m [0m| |[7;1m [0m| || 4
[32;1m[Board] [0m  -------------------
[32;1m[Board] [0m3 || |[7;1m [0m|[0;1mp[0m|[7;1m [0m| |[0;1mp[0m| |[7;1m [0m|| 3
[32;1m[Board] [0m  -------------------
[32;1m[Board] [0m2 ||[0;1mp[0m|[0;1mp[0m|[7;1m [0m|[0;1mp[0m|[0;1mp[0m| |[0;1mp[0m|[0;1mp[0m|| 2
[32;1m[Board] [0m  -------------------
[32;1m[Board] [0m1 ||[0;1mr[0m|[0;1mk[0m|[0;1mb[0m|[0;1mQ[0m|[0;1mK[0m|[0;1mb[0m|[0;1mk[0m|[0;1mr[0m|| 1
[32;1m[Board] [0m  -------------------
[32;1m[Board] [0m    a b c d e f g h
[32;1m[Board] [0m
[32;1m[Referee] [0mThis is the turn of the White player...
Input file: championship/qualifiers/lizzie-iii/White/history.csv
Output file: championship/qualifiers/lizzie-iii/White/move.csv
Turn of: white
Succesful move
c2c3
8 | R N B Q K B N R 
7 | P P P P P P P P 
6 | _ _ _ _ _ _ _ _ 
5 | _ _ _ _ _ _ _ _ 
4 | _ _ _ _ _ _ _ _ 
3 | _ _ P _ _ _ _ _ 
2 | P P _ P P P P P 
1 | R N B Q K B N R 
-------------------
  | A B C D E F G H 

Turn of: black
Succesful move
g7g5
8 | R N B Q K B N R 
7 | P P P P P P _ P 
6 | _ _ _ _ _ _ _ _ 
5 | _ _ _ _ _ _ P _ 
4 | _ _ _ _ _ _ _ _ 
3 | _ _ P _ _ _ _ _ 
2 | P P _ P P P P P 
1 | R N B Q K B N R 
-------------------
  | A B C D E F G H 

Turn of: white
Succesful move
f2f3
8 | R N B Q K B N R 
7 | P P P P P P _ P 
6 | _ _ _ _ _ _ _ _ 
5 | _ _ _ _ _ _ P _ 
4 | _ _ _ _ _ _ _ _ 
3 | _ _ P _ _ P _ _ 
2 | P P _ P P _ P P 
1 | R N B Q K B N R 
-------------------
  | A B C D E F G H 

Turn of: black
Succesful move
g8h6
8 | R N B Q K B _ R 
7 | P P P P P P _ P 
6 | _ _ _ _ _ _ _ N 
5 | _ _ _ _ _ _ P _ 
4 | _ _ _ _ _ _ _ _ 
3 | _ _ P _ _ P _ _ 
2 | P P _ P P _ P P 
1 | R N B Q K B N R 
-------------------
  | A B C D E F G H 

We are playing as White
Move history:
c2c3
g7g5
f2f3
g8h6
8 | R N B Q K B _ R 
7 | P P P P P P _ P 
6 | _ _ _ _ _ _ _ N 
5 | _ _ _ _ _ _ P _ 
4 | _ _ _ _ _ _ _ _ 
3 | _ _ P _ _ P _ _ 
2 | P P _ P P _ P P 
1 | R N B Q K B N R 
-------------------
  | A B C D E F G H 

It is white's turn to play.
AI's move: a2a4
Move written: a2a4
[32;1m[Game] [0mPlayer's error code: 0
[32;1m[Game] [0mChecking move validity...
[32;1m[Board] [0mInitializing board...
[32;1m[Board] [0mLoading history file `championship/qualifiers/lizzie-iii/White/history.csv`...
[32;1m[Board] [0mLoaded 4 move(s).
[32;1m[Board] [0mLoading move file `championship/qualifiers/lizzie-iii/White/move.csv`...
[32;1m[Board] [0mWhite player is playing a2 to a4.
[32;1m[Board] [0m
[32;1m[Board] [0m    a b c d e f g h 
[32;1m[Board] [0m  -------------------
[32;1m[Board] [0m8 ||[30;1mr[0m|[30;1mk[0m|[30;1mb[0m|[30;1mQ[0m|[30;1mK[0m|[30;1mb[0m|[7;1m [0m|[30;1mr[0m|| 8
[32;1m[Board] [0m  -------------------
[32;1m[Board] [0m7 ||[30;1mp[0m|[30;1mp[0m|[30;1mp[0m|[30;1mp[0m|[30;1mp[0m|[30;1mp[0m| |[30;1mp[0m|| 7
[32;1m[Board] [0m  -------------------
[32;1m[Board] [0m6 ||[7;1m [0m| |[7;1m [0m| |[7;1m [0m| |[7;1m [0m|[30;1mk[0m|| 6
[32;1m[Board] [0m  -------------------
[32;1m[Board] [0m5 || |[7;1m [0m| |[7;1m [0m| |[7;1m [0m|[30;1mp[0m|[7;1m [0m|| 5
[32;1m[Board] [0m  -------------------
[32;1m[Board] [0m4 ||[0;1mp[0m| |[7;1m [0m| |[7;1m [0m| |[7;1m [0m| || 4
[32;1m[Board] [0m  -------------------
[32;1m[Board] [0m3 || |[7;1m [0m|[0;1mp[0m|[7;1m [0m| |[0;1mp[0m| |[7;1m [0m|| 3
[32;1m[Board] [0m  -------------------
[32;1m[Board] [0m2 ||[7;1m [0m|[0;1mp[0m|[7;1m [0m|[0;1mp[0m|[0;1mp[0m| |[0;1mp[0m|[0;1mp[0m|| 2
[32;1m[Board] [0m  -------------------
[32;1m[Board] [0m1 ||[0;1mr[0m|[0;1mk[0m|[0;1mb[0m|[0;1mQ[0m|[0;1mK[0m|[0;1mb[0m|[0;1mk[0m|[0;1mr[0m|| 1
[32;1m[Board] [0m  -------------------
[32;1m[Board] [0m    a b c d e f g h
[32;1m[Board] [0m
[32;1m[Referee] [0mThis is the turn of the Black player...
[32;1m[Board] [0mInitializing board...
[32;1m[Board] [0mLoading history file `championship/qualifiers/lizzie-iii/White/history.csv`...
[32;1m[Board] [0mLoaded 5 move(s).
[32;1m[RandomPlayer] [0mComputing possible moves...
[32;1m[RandomPlayer] [0m20 possible move(s)
[32;1m[RandomPlayer] [0mPlaying random move 16 out of 20
[32;1m[Game] [0mPlayer's error code: 0
[32;1m[Game] [0mChecking move validity...
[32;1m[Board] [0mInitializing board...
[32;1m[Board] [0mLoading history file `championship/qualifiers/lizzie-iii/White/history.csv`...
[32;1m[Board] [0mLoaded 5 move(s).
[32;1m[Board] [0mLoading move file `championship/qualifiers/lizzie-iii/White/move.csv`...
[32;1m[Board] [0mBlack player is playing h6 to g8.
[32;1m[Board] [0m
[32;1m[Board] [0m    a b c d e f g h 
[32;1m[Board] [0m  -------------------
[32;1m[Board] [0m8 ||[30;1mr[0m|[30;1mk[0m|[30;1mb[0m|[30;1mQ[0m|[30;1mK[0m|[30;1mb[0m|[30;1mk[0m|[30;1mr[0m|| 8
[32;1m[Board] [0m  -------------------
[32;1m[Board] [0m7 ||[30;1mp[0m|[30;1mp[0m|[30;1mp[0m|[30;1mp[0m|[30;1mp[0m|[30;1mp[0m| |[30;1mp[0m|| 7
[32;1m[Board] [0m  -------------------
[32;1m[Board] [0m6 ||[7;1m [0m| |[7;1m [0m| |[7;1m [0m| |[7;1m [0m| || 6
[32;1m[Board] [0m  -------------------
[32;1m[Board] [0m5 || |[7;1m [0m| |[7;1m [0m| |[7;1m [0m|[30;1mp[0m|[7;1m [0m|| 5
[32;1m[Board] [0m  -------------------
[32;1m[Board] [0m4 ||[0;1mp[0m| |[7;1m [0m| |[7;1m [0m| |[7;1m [0m| || 4
[32;1m[Board] [0m  -------------------
[32;1m[Board] [0m3 || |[7;1m [0m|[0;1mp[0m|[7;1m [0m| |[0;1mp[0m| |[7;1m [0m|| 3
[32;1m[Board] [0m  -------------------
[32;1m[Board] [0m2 ||[7;1m [0m|[0;1mp[0m|[7;1m [0m|[0;1mp[0m|[0;1mp[0m| |[0;1mp[0m|[0;1mp[0m|| 2
[32;1m[Board] [0m  -------------------
[32;1m[Board] [0m1 ||[0;1mr[0m|[0;1mk[0m|[0;1mb[0m|[0;1mQ[0m|[0;1mK[0m|[0;1mb[0m|[0;1mk[0m|[0;1mr[0m|| 1
[32;1m[Board] [0m  -------------------
[32;1m[Board] [0m    a b c d e f g h
[32;1m[Board] [0m
[32;1m[Referee] [0mThis is the turn of the White player...
Input file: championship/qualifiers/lizzie-iii/White/history.csv
Output file: championship/qualifiers/lizzie-iii/White/move.csv
Turn of: white
Succesful move
c2c3
8 | R N B Q K B N R 
7 | P P P P P P P P 
6 | _ _ _ _ _ _ _ _ 
5 | _ _ _ _ _ _ _ _ 
4 | _ _ _ _ _ _ _ _ 
3 | _ _ P _ _ _ _ _ 
2 | P P _ P P P P P 
1 | R N B Q K B N R 
-------------------
  | A B C D E F G H 

Turn of: black
Succesful move
g7g5
8 | R N B Q K B N R 
7 | P P P P P P _ P 
6 | _ _ _ _ _ _ _ _ 
5 | _ _ _ _ _ _ P _ 
4 | _ _ _ _ _ _ _ _ 
3 | _ _ P _ _ _ _ _ 
2 | P P _ P P P P P 
1 | R N B Q K B N R 
-------------------
  | A B C D E F G H 

Turn of: white
Succesful move
f2f3
8 | R N B Q K B N R 
7 | P P P P P P _ P 
6 | _ _ _ _ _ _ _ _ 
5 | _ _ _ _ _ _ P _ 
4 | _ _ _ _ _ _ _ _ 
3 | _ _ P _ _ P _ _ 
2 | P P _ P P _ P P 
1 | R N B Q K B N R 
-------------------
  | A B C D E F G H 

Turn of: black
Succesful move
g8h6
8 | R N B Q K B _ R 
7 | P P P P P P _ P 
6 | _ _ _ _ _ _ _ N 
5 | _ _ _ _ _ _ P _ 
4 | _ _ _ _ _ _ _ _ 
3 | _ _ P _ _ P _ _ 
2 | P P _ P P _ P P 
1 | R N B Q K B N R 
-------------------
  | A B C D E F G H 

Turn of: white
Succesful move
a2a4
8 | R N B Q K B _ R 
7 | P P P P P P _ P 
6 | _ _ _ _ _ _ _ N 
5 | _ _ _ _ _ _ P _ 
4 | P _ _ _ _ _ _ _ 
3 | _ _ P _ _ P _ _ 
2 | _ P _ P P _ P P 
1 | R N B Q K B N R 
-------------------
  | A B C D E F G H 

Turn of: black
Succesful move
h6g8
8 | R N B Q K B N R 
7 | P P P P P P _ P 
6 | _ _ _ _ _ _ _ _ 
5 | _ _ _ _ _ _ P _ 
4 | P _ _ _ _ _ _ _ 
3 | _ _ P _ _ P _ _ 
2 | _ P _ P P _ P P 
1 | R N B Q K B N R 
-------------------
  | A B C D E F G H 

We are playing as White
Move history:
c2c3
g7g5
f2f3
g8h6
a2a4
h6g8
8 | R N B Q K B N R 
7 | P P P P P P _ P 
6 | _ _ _ _ _ _ _ _ 
5 | _ _ _ _ _ _ P _ 
4 | P _ _ _ _ _ _ _ 
3 | _ _ P _ _ P _ _ 
2 | _ P _ P P _ P P 
1 | R N B Q K B N R 
-------------------
  | A B C D E F G H 

It is white's turn to play.
AI's move: h2h3
Move written: h2h3
[32;1m[Game] [0mPlayer's error code: 0
[32;1m[Game] [0mChecking move validity...
[32;1m[Board] [0mInitializing board...
[32;1m[Board] [0mLoading history file `championship/qualifiers/lizzie-iii/White/history.csv`...
[32;1m[Board] [0mLoaded 6 move(s).
[32;1m[Board] [0mLoading move file `championship/qualifiers/lizzie-iii/White/move.csv`...
[32;1m[Board] [0mWhite player is playing h2 to h3.
[32;1m[Board] [0m
[32;1m[Board] [0m    a b c d e f g h 
[32;1m[Board] [0m  -------------------
[32;1m[Board] [0m8 ||[30;1mr[0m|[30;1mk[0m|[30;1mb[0m|[30;1mQ[0m|[30;1mK[0m|[30;1mb[0m|[30;1mk[0m|[30;1mr[0m|| 8
[32;1m[Board] [0m  -------------------
[32;1m[Board] [0m7 ||[30;1mp[0m|[30;1mp[0m|[30;1mp[0m|[30;1mp[0m|[30;1mp[0m|[30;1mp[0m| |[30;1mp[0m|| 7
[32;1m[Board] [0m  -------------------
[32;1m[Board] [0m6 ||[7;1m [0m| |[7;1m [0m| |[7;1m [0m| |[7;1m [0m| || 6
[32;1m[Board] [0m  -------------------
[32;1m[Board] [0m5 || |[7;1m [0m| |[7;1m [0m| |[7;1m [0m|[30;1mp[0m|[7;1m [0m|| 5
[32;1m[Board] [0m  -------------------
[32;1m[Board] [0m4 ||[0;1mp[0m| |[7;1m [0m| |[7;1m [0m| |[7;1m [0m| || 4
[32;1m[Board] [0m  -------------------
[32;1m[Board] [0m3 || |[7;1m [0m|[0;1mp[0m|[7;1m [0m| |[0;1mp[0m| |[0;1mp[0m|| 3
[32;1m[Board] [0m  -------------------
[32;1m[Board] [0m2 ||[7;1m [0m|[0;1mp[0m|[7;1m [0m|[0;1mp[0m|[0;1mp[0m| |[0;1mp[0m| || 2
[32;1m[Board] [0m  -------------------
[32;1m[Board] [0m1 ||[0;1mr[0m|[0;1mk[0m|[0;1mb[0m|[0;1mQ[0m|[0;1mK[0m|[0;1mb[0m|[0;1mk[0m|[0;1mr[0m|| 1
[32;1m[Board] [0m  -------------------
[32;1m[Board] [0m    a b c d e f g h
[32;1m[Board] [0m
[32;1m[Referee] [0mThis is the turn of the Black player...
[32;1m[Board] [0mInitializing board...
[32;1m[Board] [0mLoading history file `championship/qualifiers/lizzie-iii/White/history.csv`...
[32;1m[Board] [0mLoaded 7 move(s).
[32;1m[RandomPlayer] [0mComputing possible moves...
[32;1m[RandomPlayer] [0m21 possible move(s)
[32;1m[RandomPlayer] [0mPlaying random move 17 out of 21
[32;1m[Game] [0mPlayer's error code: 0
[32;1m[Game] [0mChecking move validity...
[32;1m[Board] [0mInitializing board...
[32;1m[Board] [0mLoading history file `championship/qualifiers/lizzie-iii/White/history.csv`...
[32;1m[Board] [0mLoaded 7 move(s).
[32;1m[Board] [0mLoading move file `championship/qualifiers/lizzie-iii/White/move.csv`...
[32;1m[Board] [0mBlack player is playing g8 to h6.
[32;1m[Board] [0m
[32;1m[Board] [0m    a b c d e f g h 
[32;1m[Board] [0m  -------------------
[32;1m[Board] [0m8 ||[30;1mr[0m|[30;1mk[0m|[30;1mb[0m|[30;1mQ[0m|[30;1mK[0m|[30;1mb[0m|[7;1m [0m|[30;1mr[0m|| 8
[32;1m[Board] [0m  -------------------
[32;1m[Board] [0m7 ||[30;1mp[0m|[30;1mp[0m|[30;1mp[0m|[30;1mp[0m|[30;1mp[0m|[30;1mp[0m| |[30;1mp[0m|| 7
[32;1m[Board] [0m  -------------------
[32;1m[Board] [0m6 ||[7;1m [0m| |[7;1m [0m| |[7;1m [0m| |[7;1m [0m|[30;1mk[0m|| 6
[32;1m[Board] [0m  -------------------
[32;1m[Board] [0m5 || |[7;1m [0m| |[7;1m [0m| |[7;1m [0m|[30;1mp[0m|[7;1m [0m|| 5
[32;1m[Board] [0m  -------------------
[32;1m[Board] [0m4 ||[0;1mp[0m| |[7;1m [0m| |[7;1m [0m| |[7;1m [0m| || 4
[32;1m[Board] [0m  -------------------
[32;1m[Board] [0m3 || |[7;1m [0m|[0;1mp[0m|[7;1m [0m| |[0;1mp[0m| |[0;1mp[0m|| 3
[32;1m[Board] [0m  -------------------
[32;1m[Board] [0m2 ||[7;1m [0m|[0;1mp[0m|[7;1m [0m|[0;1mp[0m|[0;1mp[0m| |[0;1mp[0m| || 2
[32;1m[Board] [0m  -------------------
[32;1m[Board] [0m1 ||[0;1mr[0m|[0;1mk[0m|[0;1mb[0m|[0;1mQ[0m|[0;1mK[0m|[0;1mb[0m|[0;1mk[0m|[0;1mr[0m|| 1
[32;1m[Board] [0m  -------------------
[32;1m[Board] [0m    a b c d e f g h
[32;1m[Board] [0m
[32;1m[Referee] [0mThis is the turn of the White player...
Input file: championship/qualifiers/lizzie-iii/White/history.csv
Output file: championship/qualifiers/lizzie-iii/White/move.csv
Turn of: white
Succesful move
c2c3
8 | R N B Q K B N R 
7 | P P P P P P P P 
6 | _ _ _ _ _ _ _ _ 
5 | _ _ _ _ _ _ _ _ 
4 | _ _ _ _ _ _ _ _ 
3 | _ _ P _ _ _ _ _ 
2 | P P _ P P P P P 
1 | R N B Q K B N R 
-------------------
  | A B C D E F G H 

Turn of: black
Succesful move
g7g5
8 | R N B Q K B N R 
7 | P P P P P P _ P 
6 | _ _ _ _ _ _ _ _ 
5 | _ _ _ _ _ _ P _ 
4 | _ _ _ _ _ _ _ _ 
3 | _ _ P _ _ _ _ _ 
2 | P P _ P P P P P 
1 | R N B Q K B N R 
-------------------
  | A B C D E F G H 

Turn of: white
Succesful move
f2f3
8 | R N B Q K B N R 
7 | P P P P P P _ P 
6 | _ _ _ _ _ _ _ _ 
5 | _ _ _ _ _ _ P _ 
4 | _ _ _ _ _ _ _ _ 
3 | _ _ P _ _ P _ _ 
2 | P P _ P P _ P P 
1 | R N B Q K B N R 
-------------------
  | A B C D E F G H 

Turn of: black
Succesful move
g8h6
8 | R N B Q K B _ R 
7 | P P P P P P _ P 
6 | _ _ _ _ _ _ _ N 
5 | _ _ _ _ _ _ P _ 
4 | _ _ _ _ _ _ _ _ 
3 | _ _ P _ _ P _ _ 
2 | P P _ P P _ P P 
1 | R N B Q K B N R 
-------------------
  | A B C D E F G H 

Turn of: white
Succesful move
a2a4
8 | R N B Q K B _ R 
7 | P P P P P P _ P 
6 | _ _ _ _ _ _ _ N 
5 | _ _ _ _ _ _ P _ 
4 | P _ _ _ _ _ _ _ 
3 | _ _ P _ _ P _ _ 
2 | _ P _ P P _ P P 
1 | R N B Q K B N R 
-------------------
  | A B C D E F G H 

Turn of: black
Succesful move
h6g8
8 | R N B Q K B N R 
7 | P P P P P P _ P 
6 | _ _ _ _ _ _ _ _ 
5 | _ _ _ _ _ _ P _ 
4 | P _ _ _ _ _ _ _ 
3 | _ _ P _ _ P _ _ 
2 | _ P _ P P _ P P 
1 | R N B Q K B N R 
-------------------
  | A B C D E F G H 

Turn of: white
Succesful move
h2h3
8 | R N B Q K B N R 
7 | P P P P P P _ P 
6 | _ _ _ _ _ _ _ _ 
5 | _ _ _ _ _ _ P _ 
4 | P _ _ _ _ _ _ _ 
3 | _ _ P _ _ P _ P 
2 | _ P _ P P _ P _ 
1 | R N B Q K B N R 
-------------------
  | A B C D E F G H 

Turn of: black
Succesful move
g8h6
8 | R N B Q K B _ R 
7 | P P P P P P _ P 
6 | _ _ _ _ _ _ _ N 
5 | _ _ _ _ _ _ P _ 
4 | P _ _ _ _ _ _ _ 
3 | _ _ P _ _ P _ P 
2 | _ P _ P P _ P _ 
1 | R N B Q K B N R 
-------------------
  | A B C D E F G H 

We are playing as White
Move history:
c2c3
g7g5
f2f3
g8h6
a2a4
h6g8
h2h3
g8h6
8 | R N B Q K B _ R 
7 | P P P P P P _ P 
6 | _ _ _ _ _ _ _ N 
5 | _ _ _ _ _ _ P _ 
4 | P _ _ _ _ _ _ _ 
3 | _ _ P _ _ P _ P 
2 | _ P _ P P _ P _ 
1 | R N B Q K B N R 
-------------------
  | A B C D E F G H 

It is white's turn to play.
AI's move: a1a2
Move written: a1a2
[32;1m[Game] [0mPlayer's error code: 0
[32;1m[Game] [0mChecking move validity...
[32;1m[Board] [0mInitializing board...
[32;1m[Board] [0mLoading history file `championship/qualifiers/lizzie-iii/White/history.csv`...
[32;1m[Board] [0mLoaded 8 move(s).
[32;1m[Board] [0mLoading move file `championship/qualifiers/lizzie-iii/White/move.csv`...
[32;1m[Board] [0mWhite player is playing a1 to a2.
[32;1m[Board] [0m
[32;1m[Board] [0m    a b c d e f g h 
[32;1m[Board] [0m  -------------------
[32;1m[Board] [0m8 ||[30;1mr[0m|[30;1mk[0m|[30;1mb[0m|[30;1mQ[0m|[30;1mK[0m|[30;1mb[0m|[7;1m [0m|[30;1mr[0m|| 8
[32;1m[Board] [0m  -------------------
[32;1m[Board] [0m7 ||[30;1mp[0m|[30;1mp[0m|[30;1mp[0m|[30;1mp[0m|[30;1mp[0m|[30;1mp[0m| |[30;1mp[0m|| 7
[32;1m[Board] [0m  -------------------
[32;1m[Board] [0m6 ||[7;1m [0m| |[7;1m [0m| |[7;1m [0m| |[7;1m [0m|[30;1mk[0m|| 6
[32;1m[Board] [0m  -------------------
[32;1m[Board] [0m5 || |[7;1m [0m| |[7;1m [0m| |[7;1m [0m|[30;1mp[0m|[7;1m [0m|| 5
[32;1m[Board] [0m  -------------------
[32;1m[Board] [0m4 ||[0;1mp[0m| |[7;1m [0m| |[7;1m [0m| |[7;1m [0m| || 4
[32;1m[Board] [0m  -------------------
[32;1m[Board] [0m3 || |[7;1m [0m|[0;1mp[0m|[7;1m [0m| |[0;1mp[0m| |[0;1mp[0m|| 3
[32;1m[Board] [0m  -------------------
[32;1m[Board] [0m2 ||[0;1mr[0m|[0;1mp[0m|[7;1m [0m|[0;1mp[0m|[0;1mp[0m| |[0;1mp[0m| || 2
[32;1m[Board] [0m  -------------------
[32;1m[Board] [0m1 || |[0;1mk[0m|[0;1mb[0m|[0;1mQ[0m|[0;1mK[0m|[0;1mb[0m|[0;1mk[0m|[0;1mr[0m|| 1
[32;1m[Board] [0m  -------------------
[32;1m[Board] [0m    a b c d e f g h
[32;1m[Board] [0m
[32;1m[Referee] [0mThis is the turn of the Black player...
[32;1m[Board] [0mInitializing board...
[32;1m[Board] [0mLoading history file `championship/qualifiers/lizzie-iii/White/history.csv`...
[32;1m[Board] [0mLoaded 9 move(s).
[32;1m[RandomPlayer] [0mComputing possible moves...
[32;1m[RandomPlayer] [0m20 possible move(s)
[32;1m[RandomPlayer] [0mPlaying random move 10 out of 20
[32;1m[Game] [0mPlayer's error code: 0
[32;1m[Game] [0mChecking move validity...
[32;1m[Board] [0mInitializing board...
[32;1m[Board] [0mLoading history file `championship/qualifiers/lizzie-iii/White/history.csv`...
[32;1m[Board] [0mLoaded 9 move(s).
[32;1m[Board] [0mLoading move file `championship/qualifiers/lizzie-iii/White/move.csv`...
[32;1m[Board] [0mBlack player is playing f7 to f6.
[32;1m[Board] [0m
[32;1m[Board] [0m    a b c d e f g h 
[32;1m[Board] [0m  -------------------
[32;1m[Board] [0m8 ||[30;1mr[0m|[30;1mk[0m|[30;1mb[0m|[30;1mQ[0m|[30;1mK[0m|[30;1mb[0m|[7;1m [0m|[30;1mr[0m|| 8
[32;1m[Board] [0m  -------------------
[32;1m[Board] [0m7 ||[30;1mp[0m|[30;1mp[0m|[30;1mp[0m|[30;1mp[0m|[30;1mp[0m|[7;1m [0m| |[30;1mp[0m|| 7
[32;1m[Board] [0m  -------------------
[32;1m[Board] [0m6 ||[7;1m [0m| |[7;1m [0m| |[7;1m [0m|[30;1mp[0m|[7;1m [0m|[30;1mk[0m|| 6
[32;1m[Board] [0m  -------------------
[32;1m[Board] [0m5 || |[7;1m [0m| |[7;1m [0m| |[7;1m [0m|[30;1mp[0m|[7;1m [0m|| 5
[32;1m[Board] [0m  -------------------
[32;1m[Board] [0m4 ||[0;1mp[0m| |[7;1m [0m| |[7;1m [0m| |[7;1m [0m| || 4
[32;1m[Board] [0m  -------------------
[32;1m[Board] [0m3 || |[7;1m [0m|[0;1mp[0m|[7;1m [0m| |[0;1mp[0m| |[0;1mp[0m|| 3
[32;1m[Board] [0m  -------------------
[32;1m[Board] [0m2 ||[0;1mr[0m|[0;1mp[0m|[7;1m [0m|[0;1mp[0m|[0;1mp[0m| |[0;1mp[0m| || 2
[32;1m[Board] [0m  -------------------
[32;1m[Board] [0m1 || |[0;1mk[0m|[0;1mb[0m|[0;1mQ[0m|[0;1mK[0m|[0;1mb[0m|[0;1mk[0m|[0;1mr[0m|| 1
[32;1m[Board] [0m  -------------------
[32;1m[Board] [0m    a b c d e f g h
[32;1m[Board] [0m
[32;1m[Referee] [0mThis is the turn of the White player...
Input file: championship/qualifiers/lizzie-iii/White/history.csv
Output file: championship/qualifiers/lizzie-iii/White/move.csv
Turn of: white
Succesful move
c2c3
8 | R N B Q K B N R 
7 | P P P P P P P P 
6 | _ _ _ _ _ _ _ _ 
5 | _ _ _ _ _ _ _ _ 
4 | _ _ _ _ _ _ _ _ 
3 | _ _ P _ _ _ _ _ 
2 | P P _ P P P P P 
1 | R N B Q K B N R 
-------------------
  | A B C D E F G H 

Turn of: black
Succesful move
g7g5
8 | R N B Q K B N R 
7 | P P P P P P _ P 
6 | _ _ _ _ _ _ _ _ 
5 | _ _ _ _ _ _ P _ 
4 | _ _ _ _ _ _ _ _ 
3 | _ _ P _ _ _ _ _ 
2 | P P _ P P P P P 
1 | R N B Q K B N R 
-------------------
  | A B C D E F G H 

Turn of: white
Succesful move
f2f3
8 | R N B Q K B N R 
7 | P P P P P P _ P 
6 | _ _ _ _ _ _ _ _ 
5 | _ _ _ _ _ _ P _ 
4 | _ _ _ _ _ _ _ _ 
3 | _ _ P _ _ P _ _ 
2 | P P _ P P _ P P 
1 | R N B Q K B N R 
-------------------
  | A B C D E F G H 

Turn of: black
Succesful move
g8h6
8 | R N B Q K B _ R 
7 | P P P P P P _ P 
6 | _ _ _ _ _ _ _ N 
5 | _ _ _ _ _ _ P _ 
4 | _ _ _ _ _ _ _ _ 
3 | _ _ P _ _ P _ _ 
2 | P P _ P P _ P P 
1 | R N B Q K B N R 
-------------------
  | A B C D E F G H 

Turn of: white
Succesful move
a2a4
8 | R N B Q K B _ R 
7 | P P P P P P _ P 
6 | _ _ _ _ _ _ _ N 
5 | _ _ _ _ _ _ P _ 
4 | P _ _ _ _ _ _ _ 
3 | _ _ P _ _ P _ _ 
2 | _ P _ P P _ P P 
1 | R N B Q K B N R 
-------------------
  | A B C D E F G H 

Turn of: black
Succesful move
h6g8
8 | R N B Q K B N R 
7 | P P P P P P _ P 
6 | _ _ _ _ _ _ _ _ 
5 | _ _ _ _ _ _ P _ 
4 | P _ _ _ _ _ _ _ 
3 | _ _ P _ _ P _ _ 
2 | _ P _ P P _ P P 
1 | R N B Q K B N R 
-------------------
  | A B C D E F G H 

Turn of: white
Succesful move
h2h3
8 | R N B Q K B N R 
7 | P P P P P P _ P 
6 | _ _ _ _ _ _ _ _ 
5 | _ _ _ _ _ _ P _ 
4 | P _ _ _ _ _ _ _ 
3 | _ _ P _ _ P _ P 
2 | _ P _ P P _ P _ 
1 | R N B Q K B N R 
-------------------
  | A B C D E F G H 

Turn of: black
Succesful move
g8h6
8 | R N B Q K B _ R 
7 | P P P P P P _ P 
6 | _ _ _ _ _ _ _ N 
5 | _ _ _ _ _ _ P _ 
4 | P _ _ _ _ _ _ _ 
3 | _ _ P _ _ P _ P 
2 | _ P _ P P _ P _ 
1 | R N B Q K B N R 
-------------------
  | A B C D E F G H 

Turn of: white
Succesful move
a1a2
8 | R N B Q K B _ R 
7 | P P P P P P _ P 
6 | _ _ _ _ _ _ _ N 
5 | _ _ _ _ _ _ P _ 
4 | P _ _ _ _ _ _ _ 
3 | _ _ P _ _ P _ P 
2 | R P _ P P _ P _ 
1 | _ N B Q K B N R 
-------------------
  | A B C D E F G H 

Turn of: black
Succesful move
f7f6
8 | R N B Q K B _ R 
7 | P P P P P _ _ P 
6 | _ _ _ _ _ P _ N 
5 | _ _ _ _ _ _ P _ 
4 | P _ _ _ _ _ _ _ 
3 | _ _ P _ _ P _ P 
2 | R P _ P P _ P _ 
1 | _ N B Q K B N R 
-------------------
  | A B C D E F G H 

We are playing as White
Move history:
c2c3
g7g5
f2f3
g8h6
a2a4
h6g8
h2h3
g8h6
a1a2
f7f6
8 | R N B Q K B _ R 
7 | P P P P P _ _ P 
6 | _ _ _ _ _ P _ N 
5 | _ _ _ _ _ _ P _ 
4 | P _ _ _ _ _ _ _ 
3 | _ _ P _ _ P _ P 
2 | R P _ P P _ P _ 
1 | _ N B Q K B N R 
-------------------
  | A B C D E F G H 

It is white's turn to play.
AI's move: a4a5
Move written: a4a5
[32;1m[Game] [0mPlayer's error code: 0
[32;1m[Game] [0mChecking move validity...
[32;1m[Board] [0mInitializing board...
[32;1m[Board] [0mLoading history file `championship/qualifiers/lizzie-iii/White/history.csv`...
[32;1m[Board] [0mLoaded 10 move(s).
[32;1m[Board] [0mLoading move file `championship/qualifiers/lizzie-iii/White/move.csv`...
[32;1m[Board] [0mWhite player is playing a4 to a5.
[32;1m[Board] [0m
[32;1m[Board] [0m    a b c d e f g h 
[32;1m[Board] [0m  -------------------
[32;1m[Board] [0m8 ||[30;1mr[0m|[30;1mk[0m|[30;1mb[0m|[30;1mQ[0m|[30;1mK[0m|[30;1mb[0m|[7;1m [0m|[30;1mr[0m|| 8
[32;1m[Board] [0m  -------------------
[32;1m[Board] [0m7 ||[30;1mp[0m|[30;1mp[0m|[30;1mp[0m|[30;1mp[0m|[30;1mp[0m|[7;1m [0m| |[30;1mp[0m|| 7
[32;1m[Board] [0m  -------------------
[32;1m[Board] [0m6 ||[7;1m [0m| |[7;1m [0m| |[7;1m [0m|[30;1mp[0m|[7;1m [0m|[30;1mk[0m|| 6
[32;1m[Board] [0m  -------------------
[32;1m[Board] [0m5 ||[0;1mp[0m|[7;1m [0m| |[7;1m [0m| |[7;1m [0m|[30;1mp[0m|[7;1m [0m|| 5
[32;1m[Board] [0m  -------------------
[32;1m[Board] [0m4 ||[7;1m [0m| |[7;1m [0m| |[7;1m [0m| |[7;1m [0m| || 4
[32;1m[Board] [0m  -------------------
[32;1m[Board] [0m3 || |[7;1m [0m|[0;1mp[0m|[7;1m [0m| |[0;1mp[0m| |[0;1mp[0m|| 3
[32;1m[Board] [0m  -------------------
[32;1m[Board] [0m2 ||[0;1mr[0m|[0;1mp[0m|[7;1m [0m|[0;1mp[0m|[0;1mp[0m| |[0;1mp[0m| || 2
[32;1m[Board] [0m  -------------------
[32;1m[Board] [0m1 || |[0;1mk[0m|[0;1mb[0m|[0;1mQ[0m|[0;1mK[0m|[0;1mb[0m|[0;1mk[0m|[0;1mr[0m|| 1
[32;1m[Board] [0m  -------------------
[32;1m[Board] [0m    a b c d e f g h
[32;1m[Board] [0m
[32;1m[Referee] [0mThis is the turn of the Black player...
[32;1m[Board] [0mInitializing board...
[32;1m[Board] [0mLoading history file `championship/qualifiers/lizzie-iii/White/history.csv`...
[32;1m[Board] [0mLoaded 11 move(s).
[32;1m[RandomPlayer] [0mComputing possible moves...
[32;1m[RandomPlayer] [0m20 possible move(s)
[32;1m[RandomPlayer] [0mPlaying random move 8 out of 20
[32;1m[Game] [0mPlayer's error code: 0
[32;1m[Game] [0mChecking move validity...
[32;1m[Board] [0mInitializing board...
[32;1m[Board] [0mLoading history file `championship/qualifiers/lizzie-iii/White/history.csv`...
[32;1m[Board] [0mLoaded 11 move(s).
[32;1m[Board] [0mLoading move file `championship/qualifiers/lizzie-iii/White/move.csv`...
[32;1m[Board] [0mBlack player is playing e7 to e5.
[32;1m[Board] [0m
[32;1m[Board] [0m    a b c d e f g h 
[32;1m[Board] [0m  -------------------
[32;1m[Board] [0m8 ||[30;1mr[0m|[30;1mk[0m|[30;1mb[0m|[30;1mQ[0m|[30;1mK[0m|[30;1mb[0m|[7;1m [0m|[30;1mr[0m|| 8
[32;1m[Board] [0m  -------------------
[32;1m[Board] [0m7 ||[30;1mp[0m|[30;1mp[0m|[30;1mp[0m|[30;1mp[0m| |[7;1m [0m| |[30;1mp[0m|| 7
[32;1m[Board] [0m  -------------------
[32;1m[Board] [0m6 ||[7;1m [0m| |[7;1m [0m| |[7;1m [0m|[30;1mp[0m|[7;1m [0m|[30;1mk[0m|| 6
[32;1m[Board] [0m  -------------------
[32;1m[Board] [0m5 ||[0;1mp[0m|[7;1m [0m| |[7;1m [0m|[30;1mp[0m|[7;1m [0m|[30;1mp[0m|[7;1m [0m|| 5
[32;1m[Board] [0m  -------------------
[32;1m[Board] [0m4 ||[7;1m [0m| |[7;1m [0m| |[7;1m [0m| |[7;1m [0m| || 4
[32;1m[Board] [0m  -------------------
[32;1m[Board] [0m3 || |[7;1m [0m|[0;1mp[0m|[7;1m [0m| |[0;1mp[0m| |[0;1mp[0m|| 3
[32;1m[Board] [0m  -------------------
[32;1m[Board] [0m2 ||[0;1mr[0m|[0;1mp[0m|[7;1m [0m|[0;1mp[0m|[0;1mp[0m| |[0;1mp[0m| || 2
[32;1m[Board] [0m  -------------------
[32;1m[Board] [0m1 || |[0;1mk[0m|[0;1mb[0m|[0;1mQ[0m|[0;1mK[0m|[0;1mb[0m|[0;1mk[0m|[0;1mr[0m|| 1
[32;1m[Board] [0m  -------------------
[32;1m[Board] [0m    a b c d e f g h
[32;1m[Board] [0m
[32;1m[Referee] [0mThis is the turn of the White player...
Input file: championship/qualifiers/lizzie-iii/White/history.csv
Output file: championship/qualifiers/lizzie-iii/White/move.csv
Turn of: white
Succesful move
c2c3
8 | R N B Q K B N R 
7 | P P P P P P P P 
6 | _ _ _ _ _ _ _ _ 
5 | _ _ _ _ _ _ _ _ 
4 | _ _ _ _ _ _ _ _ 
3 | _ _ P _ _ _ _ _ 
2 | P P _ P P P P P 
1 | R N B Q K B N R 
-------------------
  | A B C D E F G H 

Turn of: black
Succesful move
g7g5
8 | R N B Q K B N R 
7 | P P P P P P _ P 
6 | _ _ _ _ _ _ _ _ 
5 | _ _ _ _ _ _ P _ 
4 | _ _ _ _ _ _ _ _ 
3 | _ _ P _ _ _ _ _ 
2 | P P _ P P P P P 
1 | R N B Q K B N R 
-------------------
  | A B C D E F G H 

Turn of: white
Succesful move
f2f3
8 | R N B Q K B N R 
7 | P P P P P P _ P 
6 | _ _ _ _ _ _ _ _ 
5 | _ _ _ _ _ _ P _ 
4 | _ _ _ _ _ _ _ _ 
3 | _ _ P _ _ P _ _ 
2 | P P _ P P _ P P 
1 | R N B Q K B N R 
-------------------
  | A B C D E F G H 

Turn of: black
Succesful move
g8h6
8 | R N B Q K B _ R 
7 | P P P P P P _ P 
6 | _ _ _ _ _ _ _ N 
5 | _ _ _ _ _ _ P _ 
4 | _ _ _ _ _ _ _ _ 
3 | _ _ P _ _ P _ _ 
2 | P P _ P P _ P P 
1 | R N B Q K B N R 
-------------------
  | A B C D E F G H 

Turn of: white
Succesful move
a2a4
8 | R N B Q K B _ R 
7 | P P P P P P _ P 
6 | _ _ _ _ _ _ _ N 
5 | _ _ _ _ _ _ P _ 
4 | P _ _ _ _ _ _ _ 
3 | _ _ P _ _ P _ _ 
2 | _ P _ P P _ P P 
1 | R N B Q K B N R 
-------------------
  | A B C D E F G H 

Turn of: black
Succesful move
h6g8
8 | R N B Q K B N R 
7 | P P P P P P _ P 
6 | _ _ _ _ _ _ _ _ 
5 | _ _ _ _ _ _ P _ 
4 | P _ _ _ _ _ _ _ 
3 | _ _ P _ _ P _ _ 
2 | _ P _ P P _ P P 
1 | R N B Q K B N R 
-------------------
  | A B C D E F G H 

Turn of: white
Succesful move
h2h3
8 | R N B Q K B N R 
7 | P P P P P P _ P 
6 | _ _ _ _ _ _ _ _ 
5 | _ _ _ _ _ _ P _ 
4 | P _ _ _ _ _ _ _ 
3 | _ _ P _ _ P _ P 
2 | _ P _ P P _ P _ 
1 | R N B Q K B N R 
-------------------
  | A B C D E F G H 

Turn of: black
Succesful move
g8h6
8 | R N B Q K B _ R 
7 | P P P P P P _ P 
6 | _ _ _ _ _ _ _ N 
5 | _ _ _ _ _ _ P _ 
4 | P _ _ _ _ _ _ _ 
3 | _ _ P _ _ P _ P 
2 | _ P _ P P _ P _ 
1 | R N B Q K B N R 
-------------------
  | A B C D E F G H 

Turn of: white
Succesful move
a1a2
8 | R N B Q K B _ R 
7 | P P P P P P _ P 
6 | _ _ _ _ _ _ _ N 
5 | _ _ _ _ _ _ P _ 
4 | P _ _ _ _ _ _ _ 
3 | _ _ P _ _ P _ P 
2 | R P _ P P _ P _ 
1 | _ N B Q K B N R 
-------------------
  | A B C D E F G H 

Turn of: black
Succesful move
f7f6
8 | R N B Q K B _ R 
7 | P P P P P _ _ P 
6 | _ _ _ _ _ P _ N 
5 | _ _ _ _ _ _ P _ 
4 | P _ _ _ _ _ _ _ 
3 | _ _ P _ _ P _ P 
2 | R P _ P P _ P _ 
1 | _ N B Q K B N R 
-------------------
  | A B C D E F G H 

Turn of: white
Succesful move
a4a5
8 | R N B Q K B _ R 
7 | P P P P P _ _ P 
6 | _ _ _ _ _ P _ N 
5 | P _ _ _ _ _ P _ 
4 | _ _ _ _ _ _ _ _ 
3 | _ _ P _ _ P _ P 
2 | R P _ P P _ P _ 
1 | _ N B Q K B N R 
-------------------
  | A B C D E F G H 

Turn of: black
Succesful move
e7e5
8 | R N B Q K B _ R 
7 | P P P P _ _ _ P 
6 | _ _ _ _ _ P _ N 
5 | P _ _ _ P _ P _ 
4 | _ _ _ _ _ _ _ _ 
3 | _ _ P _ _ P _ P 
2 | R P _ P P _ P _ 
1 | _ N B Q K B N R 
-------------------
  | A B C D E F G H 

We are playing as White
Move history:
c2c3
g7g5
f2f3
g8h6
a2a4
h6g8
h2h3
g8h6
a1a2
f7f6
a4a5
e7e5
8 | R N B Q K B _ R 
7 | P P P P _ _ _ P 
6 | _ _ _ _ _ P _ N 
5 | P _ _ _ P _ P _ 
4 | _ _ _ _ _ _ _ _ 
3 | _ _ P _ _ P _ P 
2 | R P _ P P _ P _ 
1 | _ N B Q K B N R 
-------------------
  | A B C D E F G H 

It is white's turn to play.
AI's move: a2a3
Move written: a2a3
[32;1m[Game] [0mPlayer's error code: 0
[32;1m[Game] [0mChecking move validity...
[32;1m[Board] [0mInitializing board...
[32;1m[Board] [0mLoading history file `championship/qualifiers/lizzie-iii/White/history.csv`...
[32;1m[Board] [0mLoaded 12 move(s).
[32;1m[Board] [0mLoading move file `championship/qualifiers/lizzie-iii/White/move.csv`...
[32;1m[Board] [0mWhite player is playing a2 to a3.
[32;1m[Board] [0m
[32;1m[Board] [0m    a b c d e f g h 
[32;1m[Board] [0m  -------------------
[32;1m[Board] [0m8 ||[30;1mr[0m|[30;1mk[0m|[30;1mb[0m|[30;1mQ[0m|[30;1mK[0m|[30;1mb[0m|[7;1m [0m|[30;1mr[0m|| 8
[32;1m[Board] [0m  -------------------
[32;1m[Board] [0m7 ||[30;1mp[0m|[30;1mp[0m|[30;1mp[0m|[30;1mp[0m| |[7;1m [0m| |[30;1mp[0m|| 7
[32;1m[Board] [0m  -------------------
[32;1m[Board] [0m6 ||[7;1m [0m| |[7;1m [0m| |[7;1m [0m|[30;1mp[0m|[7;1m [0m|[30;1mk[0m|| 6
[32;1m[Board] [0m  -------------------
[32;1m[Board] [0m5 ||[0;1mp[0m|[7;1m [0m| |[7;1m [0m|[30;1mp[0m|[7;1m [0m|[30;1mp[0m|[7;1m [0m|| 5
[32;1m[Board] [0m  -------------------
[32;1m[Board] [0m4 ||[7;1m [0m| |[7;1m [0m| |[7;1m [0m| |[7;1m [0m| || 4
[32;1m[Board] [0m  -------------------
[32;1m[Board] [0m3 ||[0;1mr[0m|[7;1m [0m|[0;1mp[0m|[7;1m [0m| |[0;1mp[0m| |[0;1mp[0m|| 3
[32;1m[Board] [0m  -------------------
[32;1m[Board] [0m2 ||[7;1m [0m|[0;1mp[0m|[7;1m [0m|[0;1mp[0m|[0;1mp[0m| |[0;1mp[0m| || 2
[32;1m[Board] [0m  -------------------
[32;1m[Board] [0m1 || |[0;1mk[0m|[0;1mb[0m|[0;1mQ[0m|[0;1mK[0m|[0;1mb[0m|[0;1mk[0m|[0;1mr[0m|| 1
[32;1m[Board] [0m  -------------------
[32;1m[Board] [0m    a b c d e f g h
[32;1m[Board] [0m
[32;1m[Referee] [0mThis is the turn of the Black player...
[32;1m[Board] [0mInitializing board...
[32;1m[Board] [0mLoading history file `championship/qualifiers/lizzie-iii/White/history.csv`...
[32;1m[Board] [0mLoaded 13 move(s).
[32;1m[RandomPlayer] [0mComputing possible moves...
[32;1m[RandomPlayer] [0m26 possible move(s)
[32;1m[RandomPlayer] [0mPlaying random move 18 out of 26
[32;1m[Game] [0mPlayer's error code: 0
[32;1m[Game] [0mChecking move validity...
[32;1m[Board] [0mInitializing board...
[32;1m[Board] [0mLoading history file `championship/qualifiers/lizzie-iii/White/history.csv`...
[32;1m[Board] [0mLoaded 13 move(s).
[32;1m[Board] [0mLoading move file `championship/qualifiers/lizzie-iii/White/move.csv`...
[32;1m[Board] [0mBlack player is playing f8 to e7.
[32;1m[Board] [0m
[32;1m[Board] [0m    a b c d e f g h 
[32;1m[Board] [0m  -------------------
[32;1m[Board] [0m8 ||[30;1mr[0m|[30;1mk[0m|[30;1mb[0m|[30;1mQ[0m|[30;1mK[0m| |[7;1m [0m|[30;1mr[0m|| 8
[32;1m[Board] [0m  -------------------
[32;1m[Board] [0m7 ||[30;1mp[0m|[30;1mp[0m|[30;1mp[0m|[30;1mp[0m|[30;1mb[0m|[7;1m [0m| |[30;1mp[0m|| 7
[32;1m[Board] [0m  -------------------
[32;1m[Board] [0m6 ||[7;1m [0m| |[7;1m [0m| |[7;1m [0m|[30;1mp[0m|[7;1m [0m|[30;1mk[0m|| 6
[32;1m[Board] [0m  -------------------
[32;1m[Board] [0m5 ||[0;1mp[0m|[7;1m [0m| |[7;1m [0m|[30;1mp[0m|[7;1m [0m|[30;1mp[0m|[7;1m [0m|| 5
[32;1m[Board] [0m  -------------------
[32;1m[Board] [0m4 ||[7;1m [0m| |[7;1m [0m| |[7;1m [0m| |[7;1m [0m| || 4
[32;1m[Board] [0m  -------------------
[32;1m[Board] [0m3 ||[0;1mr[0m|[7;1m [0m|[0;1mp[0m|[7;1m [0m| |[0;1mp[0m| |[0;1mp[0m|| 3
[32;1m[Board] [0m  -------------------
[32;1m[Board] [0m2 ||[7;1m [0m|[0;1mp[0m|[7;1m [0m|[0;1mp[0m|[0;1mp[0m| |[0;1mp[0m| || 2
[32;1m[Board] [0m  -------------------
[32;1m[Board] [0m1 || |[0;1mk[0m|[0;1mb[0m|[0;1mQ[0m|[0;1mK[0m|[0;1mb[0m|[0;1mk[0m|[0;1mr[0m|| 1
[32;1m[Board] [0m  -------------------
[32;1m[Board] [0m    a b c d e f g h
[32;1m[Board] [0m
[32;1m[Referee] [0mThis is the turn of the White player...
Input file: championship/qualifiers/lizzie-iii/White/history.csv
Output file: championship/qualifiers/lizzie-iii/White/move.csv
Turn of: white
Succesful move
c2c3
8 | R N B Q K B N R 
7 | P P P P P P P P 
6 | _ _ _ _ _ _ _ _ 
5 | _ _ _ _ _ _ _ _ 
4 | _ _ _ _ _ _ _ _ 
3 | _ _ P _ _ _ _ _ 
2 | P P _ P P P P P 
1 | R N B Q K B N R 
-------------------
  | A B C D E F G H 

Turn of: black
Succesful move
g7g5
8 | R N B Q K B N R 
7 | P P P P P P _ P 
6 | _ _ _ _ _ _ _ _ 
5 | _ _ _ _ _ _ P _ 
4 | _ _ _ _ _ _ _ _ 
3 | _ _ P _ _ _ _ _ 
2 | P P _ P P P P P 
1 | R N B Q K B N R 
-------------------
  | A B C D E F G H 

Turn of: white
Succesful move
f2f3
8 | R N B Q K B N R 
7 | P P P P P P _ P 
6 | _ _ _ _ _ _ _ _ 
5 | _ _ _ _ _ _ P _ 
4 | _ _ _ _ _ _ _ _ 
3 | _ _ P _ _ P _ _ 
2 | P P _ P P _ P P 
1 | R N B Q K B N R 
-------------------
  | A B C D E F G H 

Turn of: black
Succesful move
g8h6
8 | R N B Q K B _ R 
7 | P P P P P P _ P 
6 | _ _ _ _ _ _ _ N 
5 | _ _ _ _ _ _ P _ 
4 | _ _ _ _ _ _ _ _ 
3 | _ _ P _ _ P _ _ 
2 | P P _ P P _ P P 
1 | R N B Q K B N R 
-------------------
  | A B C D E F G H 

Turn of: white
Succesful move
a2a4
8 | R N B Q K B _ R 
7 | P P P P P P _ P 
6 | _ _ _ _ _ _ _ N 
5 | _ _ _ _ _ _ P _ 
4 | P _ _ _ _ _ _ _ 
3 | _ _ P _ _ P _ _ 
2 | _ P _ P P _ P P 
1 | R N B Q K B N R 
-------------------
  | A B C D E F G H 

Turn of: black
Succesful move
h6g8
8 | R N B Q K B N R 
7 | P P P P P P _ P 
6 | _ _ _ _ _ _ _ _ 
5 | _ _ _ _ _ _ P _ 
4 | P _ _ _ _ _ _ _ 
3 | _ _ P _ _ P _ _ 
2 | _ P _ P P _ P P 
1 | R N B Q K B N R 
-------------------
  | A B C D E F G H 

Turn of: white
Succesful move
h2h3
8 | R N B Q K B N R 
7 | P P P P P P _ P 
6 | _ _ _ _ _ _ _ _ 
5 | _ _ _ _ _ _ P _ 
4 | P _ _ _ _ _ _ _ 
3 | _ _ P _ _ P _ P 
2 | _ P _ P P _ P _ 
1 | R N B Q K B N R 
-------------------
  | A B C D E F G H 

Turn of: black
Succesful move
g8h6
8 | R N B Q K B _ R 
7 | P P P P P P _ P 
6 | _ _ _ _ _ _ _ N 
5 | _ _ _ _ _ _ P _ 
4 | P _ _ _ _ _ _ _ 
3 | _ _ P _ _ P _ P 
2 | _ P _ P P _ P _ 
1 | R N B Q K B N R 
-------------------
  | A B C D E F G H 

Turn of: white
Succesful move
a1a2
8 | R N B Q K B _ R 
7 | P P P P P P _ P 
6 | _ _ _ _ _ _ _ N 
5 | _ _ _ _ _ _ P _ 
4 | P _ _ _ _ _ _ _ 
3 | _ _ P _ _ P _ P 
2 | R P _ P P _ P _ 
1 | _ N B Q K B N R 
-------------------
  | A B C D E F G H 

Turn of: black
Succesful move
f7f6
8 | R N B Q K B _ R 
7 | P P P P P _ _ P 
6 | _ _ _ _ _ P _ N 
5 | _ _ _ _ _ _ P _ 
4 | P _ _ _ _ _ _ _ 
3 | _ _ P _ _ P _ P 
2 | R P _ P P _ P _ 
1 | _ N B Q K B N R 
-------------------
  | A B C D E F G H 

Turn of: white
Succesful move
a4a5
8 | R N B Q K B _ R 
7 | P P P P P _ _ P 
6 | _ _ _ _ _ P _ N 
5 | P _ _ _ _ _ P _ 
4 | _ _ _ _ _ _ _ _ 
3 | _ _ P _ _ P _ P 
2 | R P _ P P _ P _ 
1 | _ N B Q K B N R 
-------------------
  | A B C D E F G H 

Turn of: black
Succesful move
e7e5
8 | R N B Q K B _ R 
7 | P P P P _ _ _ P 
6 | _ _ _ _ _ P _ N 
5 | P _ _ _ P _ P _ 
4 | _ _ _ _ _ _ _ _ 
3 | _ _ P _ _ P _ P 
2 | R P _ P P _ P _ 
1 | _ N B Q K B N R 
-------------------
  | A B C D E F G H 

Turn of: white
Succesful move
a2a3
8 | R N B Q K B _ R 
7 | P P P P _ _ _ P 
6 | _ _ _ _ _ P _ N 
5 | P _ _ _ P _ P _ 
4 | _ _ _ _ _ _ _ _ 
3 | R _ P _ _ P _ P 
2 | _ P _ P P _ P _ 
1 | _ N B Q K B N R 
-------------------
  | A B C D E F G H 

Turn of: black
Succesful move
f8e7
8 | R N B Q K _ _ R 
7 | P P P P B _ _ P 
6 | _ _ _ _ _ P _ N 
5 | P _ _ _ P _ P _ 
4 | _ _ _ _ _ _ _ _ 
3 | R _ P _ _ P _ P 
2 | _ P _ P P _ P _ 
1 | _ N B Q K B N R 
-------------------
  | A B C D E F G H 

We are playing as White
Move history:
c2c3
g7g5
f2f3
g8h6
a2a4
h6g8
h2h3
g8h6
a1a2
f7f6
a4a5
e7e5
a2a3
f8e7
8 | R N B Q K _ _ R 
7 | P P P P B _ _ P 
6 | _ _ _ _ _ P _ N 
5 | P _ _ _ P _ P _ 
4 | _ _ _ _ _ _ _ _ 
3 | R _ P _ _ P _ P 
2 | _ P _ P P _ P _ 
1 | _ N B Q K B N R 
-------------------
  | A B C D E F G H 

It is white's turn to play.
AI's move: d1b3
Move written: d1b3
[32;1m[Game] [0mPlayer's error code: 0
[32;1m[Game] [0mChecking move validity...
[32;1m[Board] [0mInitializing board...
[32;1m[Board] [0mLoading history file `championship/qualifiers/lizzie-iii/White/history.csv`...
[32;1m[Board] [0mLoaded 14 move(s).
[32;1m[Board] [0mLoading move file `championship/qualifiers/lizzie-iii/White/move.csv`...
[32;1m[Board] [0mWhite player is playing d1 to b3.
[32;1m[Board] [0m
[32;1m[Board] [0m    a b c d e f g h 
[32;1m[Board] [0m  -------------------
[32;1m[Board] [0m8 ||[30;1mr[0m|[30;1mk[0m|[30;1mb[0m|[30;1mQ[0m|[30;1mK[0m| |[7;1m [0m|[30;1mr[0m|| 8
[32;1m[Board] [0m  -------------------
[32;1m[Board] [0m7 ||[30;1mp[0m|[30;1mp[0m|[30;1mp[0m|[30;1mp[0m|[30;1mb[0m|[7;1m [0m| |[30;1mp[0m|| 7
[32;1m[Board] [0m  -------------------
[32;1m[Board] [0m6 ||[7;1m [0m| |[7;1m [0m| |[7;1m [0m|[30;1mp[0m|[7;1m [0m|[30;1mk[0m|| 6
[32;1m[Board] [0m  -------------------
[32;1m[Board] [0m5 ||[0;1mp[0m|[7;1m [0m| |[7;1m [0m|[30;1mp[0m|[7;1m [0m|[30;1mp[0m|[7;1m [0m|| 5
[32;1m[Board] [0m  -------------------
[32;1m[Board] [0m4 ||[7;1m [0m| |[7;1m [0m| |[7;1m [0m| |[7;1m [0m| || 4
[32;1m[Board] [0m  -------------------
[32;1m[Board] [0m3 ||[0;1mr[0m|[0;1mQ[0m|[0;1mp[0m|[7;1m [0m| |[0;1mp[0m| |[0;1mp[0m|| 3
[32;1m[Board] [0m  -------------------
[32;1m[Board] [0m2 ||[7;1m [0m|[0;1mp[0m|[7;1m [0m|[0;1mp[0m|[0;1mp[0m| |[0;1mp[0m| || 2
[32;1m[Board] [0m  -------------------
[32;1m[Board] [0m1 || |[0;1mk[0m|[0;1mb[0m|[7;1m [0m|[0;1mK[0m|[0;1mb[0m|[0;1mk[0m|[0;1mr[0m|| 1
[32;1m[Board] [0m  -------------------
[32;1m[Board] [0m    a b c d e f g h
[32;1m[Board] [0m
[32;1m[Referee] [0mThis is the turn of the Black player...
[32;1m[Board] [0mInitializing board...
[32;1m[Board] [0mLoading history file `championship/qualifiers/lizzie-iii/White/history.csv`...
[32;1m[Board] [0mLoaded 15 move(s).
[32;1m[RandomPlayer] [0mComputing possible moves...
[32;1m[RandomPlayer] [0m24 possible move(s)
[32;1m[RandomPlayer] [0mPlaying random move 14 out of 24
[32;1m[Game] [0mPlayer's error code: 0
[32;1m[Game] [0mChecking move validity...
[32;1m[Board] [0mInitializing board...
[32;1m[Board] [0mLoading history file `championship/qualifiers/lizzie-iii/White/history.csv`...
[32;1m[Board] [0mLoaded 15 move(s).
[32;1m[Board] [0mLoading move file `championship/qualifiers/lizzie-iii/White/move.csv`...
[32;1m[Board] [0mBlack player is playing h6 to f7.
[32;1m[Board] [0m
[32;1m[Board] [0m    a b c d e f g h 
[32;1m[Board] [0m  -------------------
[32;1m[Board] [0m8 ||[30;1mr[0m|[30;1mk[0m|[30;1mb[0m|[30;1mQ[0m|[30;1mK[0m| |[7;1m [0m|[30;1mr[0m|| 8
[32;1m[Board] [0m  -------------------
[32;1m[Board] [0m7 ||[30;1mp[0m|[30;1mp[0m|[30;1mp[0m|[30;1mp[0m|[30;1mb[0m|[30;1mk[0m| |[30;1mp[0m|| 7
[32;1m[Board] [0m  -------------------
[32;1m[Board] [0m6 ||[7;1m [0m| |[7;1m [0m| |[7;1m [0m|[30;1mp[0m|[7;1m [0m| || 6
[32;1m[Board] [0m  -------------------
[32;1m[Board] [0m5 ||[0;1mp[0m|[7;1m [0m| |[7;1m [0m|[30;1mp[0m|[7;1m [0m|[30;1mp[0m|[7;1m [0m|| 5
[32;1m[Board] [0m  -------------------
[32;1m[Board] [0m4 ||[7;1m [0m| |[7;1m [0m| |[7;1m [0m| |[7;1m [0m| || 4
[32;1m[Board] [0m  -------------------
[32;1m[Board] [0m3 ||[0;1mr[0m|[0;1mQ[0m|[0;1mp[0m|[7;1m [0m| |[0;1mp[0m| |[0;1mp[0m|| 3
[32;1m[Board] [0m  -------------------
[32;1m[Board] [0m2 ||[7;1m [0m|[0;1mp[0m|[7;1m [0m|[0;1mp[0m|[0;1mp[0m| |[0;1mp[0m| || 2
[32;1m[Board] [0m  -------------------
[32;1m[Board] [0m1 || |[0;1mk[0m|[0;1mb[0m|[7;1m [0m|[0;1mK[0m|[0;1mb[0m|[0;1mk[0m|[0;1mr[0m|| 1
[32;1m[Board] [0m  -------------------
[32;1m[Board] [0m    a b c d e f g h
[32;1m[Board] [0m
[32;1m[Referee] [0mThis is the turn of the White player...
Input file: championship/qualifiers/lizzie-iii/White/history.csv
Output file: championship/qualifiers/lizzie-iii/White/move.csv
Turn of: white
Succesful move
c2c3
8 | R N B Q K B N R 
7 | P P P P P P P P 
6 | _ _ _ _ _ _ _ _ 
5 | _ _ _ _ _ _ _ _ 
4 | _ _ _ _ _ _ _ _ 
3 | _ _ P _ _ _ _ _ 
2 | P P _ P P P P P 
1 | R N B Q K B N R 
-------------------
  | A B C D E F G H 

Turn of: black
Succesful move
g7g5
8 | R N B Q K B N R 
7 | P P P P P P _ P 
6 | _ _ _ _ _ _ _ _ 
5 | _ _ _ _ _ _ P _ 
4 | _ _ _ _ _ _ _ _ 
3 | _ _ P _ _ _ _ _ 
2 | P P _ P P P P P 
1 | R N B Q K B N R 
-------------------
  | A B C D E F G H 

Turn of: white
Succesful move
f2f3
8 | R N B Q K B N R 
7 | P P P P P P _ P 
6 | _ _ _ _ _ _ _ _ 
5 | _ _ _ _ _ _ P _ 
4 | _ _ _ _ _ _ _ _ 
3 | _ _ P _ _ P _ _ 
2 | P P _ P P _ P P 
1 | R N B Q K B N R 
-------------------
  | A B C D E F G H 

Turn of: black
Succesful move
g8h6
8 | R N B Q K B _ R 
7 | P P P P P P _ P 
6 | _ _ _ _ _ _ _ N 
5 | _ _ _ _ _ _ P _ 
4 | _ _ _ _ _ _ _ _ 
3 | _ _ P _ _ P _ _ 
2 | P P _ P P _ P P 
1 | R N B Q K B N R 
-------------------
  | A B C D E F G H 

Turn of: white
Succesful move
a2a4
8 | R N B Q K B _ R 
7 | P P P P P P _ P 
6 | _ _ _ _ _ _ _ N 
5 | _ _ _ _ _ _ P _ 
4 | P _ _ _ _ _ _ _ 
3 | _ _ P _ _ P _ _ 
2 | _ P _ P P _ P P 
1 | R N B Q K B N R 
-------------------
  | A B C D E F G H 

Turn of: black
Succesful move
h6g8
8 | R N B Q K B N R 
7 | P P P P P P _ P 
6 | _ _ _ _ _ _ _ _ 
5 | _ _ _ _ _ _ P _ 
4 | P _ _ _ _ _ _ _ 
3 | _ _ P _ _ P _ _ 
2 | _ P _ P P _ P P 
1 | R N B Q K B N R 
-------------------
  | A B C D E F G H 

Turn of: white
Succesful move
h2h3
8 | R N B Q K B N R 
7 | P P P P P P _ P 
6 | _ _ _ _ _ _ _ _ 
5 | _ _ _ _ _ _ P _ 
4 | P _ _ _ _ _ _ _ 
3 | _ _ P _ _ P _ P 
2 | _ P _ P P _ P _ 
1 | R N B Q K B N R 
-------------------
  | A B C D E F G H 

Turn of: black
Succesful move
g8h6
8 | R N B Q K B _ R 
7 | P P P P P P _ P 
6 | _ _ _ _ _ _ _ N 
5 | _ _ _ _ _ _ P _ 
4 | P _ _ _ _ _ _ _ 
3 | _ _ P _ _ P _ P 
2 | _ P _ P P _ P _ 
1 | R N B Q K B N R 
-------------------
  | A B C D E F G H 

Turn of: white
Succesful move
a1a2
8 | R N B Q K B _ R 
7 | P P P P P P _ P 
6 | _ _ _ _ _ _ _ N 
5 | _ _ _ _ _ _ P _ 
4 | P _ _ _ _ _ _ _ 
3 | _ _ P _ _ P _ P 
2 | R P _ P P _ P _ 
1 | _ N B Q K B N R 
-------------------
  | A B C D E F G H 

Turn of: black
Succesful move
f7f6
8 | R N B Q K B _ R 
7 | P P P P P _ _ P 
6 | _ _ _ _ _ P _ N 
5 | _ _ _ _ _ _ P _ 
4 | P _ _ _ _ _ _ _ 
3 | _ _ P _ _ P _ P 
2 | R P _ P P _ P _ 
1 | _ N B Q K B N R 
-------------------
  | A B C D E F G H 

Turn of: white
Succesful move
a4a5
8 | R N B Q K B _ R 
7 | P P P P P _ _ P 
6 | _ _ _ _ _ P _ N 
5 | P _ _ _ _ _ P _ 
4 | _ _ _ _ _ _ _ _ 
3 | _ _ P _ _ P _ P 
2 | R P _ P P _ P _ 
1 | _ N B Q K B N R 
-------------------
  | A B C D E F G H 

Turn of: black
Succesful move
e7e5
8 | R N B Q K B _ R 
7 | P P P P _ _ _ P 
6 | _ _ _ _ _ P _ N 
5 | P _ _ _ P _ P _ 
4 | _ _ _ _ _ _ _ _ 
3 | _ _ P _ _ P _ P 
2 | R P _ P P _ P _ 
1 | _ N B Q K B N R 
-------------------
  | A B C D E F G H 

Turn of: white
Succesful move
a2a3
8 | R N B Q K B _ R 
7 | P P P P _ _ _ P 
6 | _ _ _ _ _ P _ N 
5 | P _ _ _ P _ P _ 
4 | _ _ _ _ _ _ _ _ 
3 | R _ P _ _ P _ P 
2 | _ P _ P P _ P _ 
1 | _ N B Q K B N R 
-------------------
  | A B C D E F G H 

Turn of: black
Succesful move
f8e7
8 | R N B Q K _ _ R 
7 | P P P P B _ _ P 
6 | _ _ _ _ _ P _ N 
5 | P _ _ _ P _ P _ 
4 | _ _ _ _ _ _ _ _ 
3 | R _ P _ _ P _ P 
2 | _ P _ P P _ P _ 
1 | _ N B Q K B N R 
-------------------
  | A B C D E F G H 

Turn of: white
Succesful move
d1b3
8 | R N B Q K _ _ R 
7 | P P P P B _ _ P 
6 | _ _ _ _ _ P _ N 
5 | P _ _ _ P _ P _ 
4 | _ _ _ _ _ _ _ _ 
3 | R Q P _ _ P _ P 
2 | _ P _ P P _ P _ 
1 | _ N B _ K B N R 
-------------------
  | A B C D E F G H 

Turn of: black
Succesful move
h6f7
8 | R N B Q K _ _ R 
7 | P P P P B N _ P 
6 | _ _ _ _ _ P _ _ 
5 | P _ _ _ P _ P _ 
4 | _ _ _ _ _ _ _ _ 
3 | R Q P _ _ P _ P 
2 | _ P _ P P _ P _ 
1 | _ N B _ K B N R 
-------------------
  | A B C D E F G H 

We are playing as White
Move history:
c2c3
g7g5
f2f3
g8h6
a2a4
h6g8
h2h3
g8h6
a1a2
f7f6
a4a5
e7e5
a2a3
f8e7
d1b3
h6f7
8 | R N B Q K _ _ R 
7 | P P P P B N _ P 
6 | _ _ _ _ _ P _ _ 
5 | P _ _ _ P _ P _ 
4 | _ _ _ _ _ _ _ _ 
3 | R Q P _ _ P _ P 
2 | _ P _ P P _ P _ 
1 | _ N B _ K B N R 
-------------------
  | A B C D E F G H 

It is white's turn to play.
AI's move: e2e3
Move written: e2e3
[32;1m[Game] [0mPlayer's error code: 0
[32;1m[Game] [0mChecking move validity...
[32;1m[Board] [0mInitializing board...
[32;1m[Board] [0mLoading history file `championship/qualifiers/lizzie-iii/White/history.csv`...
[32;1m[Board] [0mLoaded 16 move(s).
[32;1m[Board] [0mLoading move file `championship/qualifiers/lizzie-iii/White/move.csv`...
[32;1m[Board] [0mWhite player is playing e2 to e3.
[32;1m[Board] [0m
[32;1m[Board] [0m    a b c d e f g h 
[32;1m[Board] [0m  -------------------
[32;1m[Board] [0m8 ||[30;1mr[0m|[30;1mk[0m|[30;1mb[0m|[30;1mQ[0m|[30;1mK[0m| |[7;1m [0m|[30;1mr[0m|| 8
[32;1m[Board] [0m  -------------------
[32;1m[Board] [0m7 ||[30;1mp[0m|[30;1mp[0m|[30;1mp[0m|[30;1mp[0m|[30;1mb[0m|[30;1mk[0m| |[30;1mp[0m|| 7
[32;1m[Board] [0m  -------------------
[32;1m[Board] [0m6 ||[7;1m [0m| |[7;1m [0m| |[7;1m [0m|[30;1mp[0m|[7;1m [0m| || 6
[32;1m[Board] [0m  -------------------
[32;1m[Board] [0m5 ||[0;1mp[0m|[7;1m [0m| |[7;1m [0m|[30;1mp[0m|[7;1m [0m|[30;1mp[0m|[7;1m [0m|| 5
[32;1m[Board] [0m  -------------------
[32;1m[Board] [0m4 ||[7;1m [0m| |[7;1m [0m| |[7;1m [0m| |[7;1m [0m| || 4
[32;1m[Board] [0m  -------------------
[32;1m[Board] [0m3 ||[0;1mr[0m|[0;1mQ[0m|[0;1mp[0m|[7;1m [0m|[0;1mp[0m|[0;1mp[0m| |[0;1mp[0m|| 3
[32;1m[Board] [0m  -------------------
[32;1m[Board] [0m2 ||[7;1m [0m|[0;1mp[0m|[7;1m [0m|[0;1mp[0m|[7;1m [0m| |[0;1mp[0m| || 2
[32;1m[Board] [0m  -------------------
[32;1m[Board] [0m1 || |[0;1mk[0m|[0;1mb[0m|[7;1m [0m|[0;1mK[0m|[0;1mb[0m|[0;1mk[0m|[0;1mr[0m|| 1
[32;1m[Board] [0m  -------------------
[32;1m[Board] [0m    a b c d e f g h
[32;1m[Board] [0m
[32;1m[Referee] [0mThis is the turn of the Black player...
[32;1m[Board] [0mInitializing board...
[32;1m[Board] [0mLoading history file `championship/qualifiers/lizzie-iii/White/history.csv`...
[32;1m[Board] [0mLoaded 17 move(s).
[32;1m[RandomPlayer] [0mComputing possible moves...
[32;1m[RandomPlayer] [0m25 possible move(s)
[32;1m[RandomPlayer] [0mPlaying random move 22 out of 25
[32;1m[Game] [0mPlayer's error code: 0
[32;1m[Game] [0mChecking move validity...
[32;1m[Board] [0mInitializing board...
[32;1m[Board] [0mLoading history file `championship/qualifiers/lizzie-iii/White/history.csv`...
[32;1m[Board] [0mLoaded 17 move(s).
[32;1m[Board] [0mLoading move file `championship/qualifiers/lizzie-iii/White/move.csv`...
[32;1m[Board] [0mBlack player is playing e7 to a3.
[32;1m[Board] [0m[5;1mBlack Bishop is taking White Rook.[0m
[32;1m[Board] [0m
[32;1m[Board] [0m    a b c d e f g h 
[32;1m[Board] [0m  -------------------
[32;1m[Board] [0m8 ||[30;1mr[0m|[30;1mk[0m|[30;1mb[0m|[30;1mQ[0m|[30;1mK[0m| |[7;1m [0m|[30;1mr[0m|| 8
[32;1m[Board] [0m  -------------------
[32;1m[Board] [0m7 ||[30;1mp[0m|[30;1mp[0m|[30;1mp[0m|[30;1mp[0m| |[30;1mk[0m| |[30;1mp[0m|| 7
[32;1m[Board] [0m  -------------------
[32;1m[Board] [0m6 ||[7;1m [0m| |[7;1m [0m| |[7;1m [0m|[30;1mp[0m|[7;1m [0m| || 6
[32;1m[Board] [0m  -------------------
[32;1m[Board] [0m5 ||[0;1mp[0m|[7;1m [0m| |[7;1m [0m|[30;1mp[0m|[7;1m [0m|[30;1mp[0m|[7;1m [0m|| 5
[32;1m[Board] [0m  -------------------
[32;1m[Board] [0m4 ||[7;1m [0m| |[7;1m [0m| |[7;1m [0m| |[7;1m [0m| || 4
[32;1m[Board] [0m  -------------------
[32;1m[Board] [0m3 ||[30;1mb[0m|[0;1mQ[0m|[0;1mp[0m|[7;1m [0m|[0;1mp[0m|[0;1mp[0m| |[0;1mp[0m|| 3
[32;1m[Board] [0m  -------------------
[32;1m[Board] [0m2 ||[7;1m [0m|[0;1mp[0m|[7;1m [0m|[0;1mp[0m|[7;1m [0m| |[0;1mp[0m| || 2
[32;1m[Board] [0m  -------------------
[32;1m[Board] [0m1 || |[0;1mk[0m|[0;1mb[0m|[7;1m [0m|[0;1mK[0m|[0;1mb[0m|[0;1mk[0m|[0;1mr[0m|| 1
[32;1m[Board] [0m  -------------------
[32;1m[Board] [0m    a b c d e f g h
[32;1m[Board] [0m
[32;1m[Referee] [0mThis is the turn of the White player...
Input file: championship/qualifiers/lizzie-iii/White/history.csv
Output file: championship/qualifiers/lizzie-iii/White/move.csv
Turn of: white
Succesful move
c2c3
8 | R N B Q K B N R 
7 | P P P P P P P P 
6 | _ _ _ _ _ _ _ _ 
5 | _ _ _ _ _ _ _ _ 
4 | _ _ _ _ _ _ _ _ 
3 | _ _ P _ _ _ _ _ 
2 | P P _ P P P P P 
1 | R N B Q K B N R 
-------------------
  | A B C D E F G H 

Turn of: black
Succesful move
g7g5
8 | R N B Q K B N R 
7 | P P P P P P _ P 
6 | _ _ _ _ _ _ _ _ 
5 | _ _ _ _ _ _ P _ 
4 | _ _ _ _ _ _ _ _ 
3 | _ _ P _ _ _ _ _ 
2 | P P _ P P P P P 
1 | R N B Q K B N R 
-------------------
  | A B C D E F G H 

Turn of: white
Succesful move
f2f3
8 | R N B Q K B N R 
7 | P P P P P P _ P 
6 | _ _ _ _ _ _ _ _ 
5 | _ _ _ _ _ _ P _ 
4 | _ _ _ _ _ _ _ _ 
3 | _ _ P _ _ P _ _ 
2 | P P _ P P _ P P 
1 | R N B Q K B N R 
-------------------
  | A B C D E F G H 

Turn of: black
Succesful move
g8h6
8 | R N B Q K B _ R 
7 | P P P P P P _ P 
6 | _ _ _ _ _ _ _ N 
5 | _ _ _ _ _ _ P _ 
4 | _ _ _ _ _ _ _ _ 
3 | _ _ P _ _ P _ _ 
2 | P P _ P P _ P P 
1 | R N B Q K B N R 
-------------------
  | A B C D E F G H 

Turn of: white
Succesful move
a2a4
8 | R N B Q K B _ R 
7 | P P P P P P _ P 
6 | _ _ _ _ _ _ _ N 
5 | _ _ _ _ _ _ P _ 
4 | P _ _ _ _ _ _ _ 
3 | _ _ P _ _ P _ _ 
2 | _ P _ P P _ P P 
1 | R N B Q K B N R 
-------------------
  | A B C D E F G H 

Turn of: black
Succesful move
h6g8
8 | R N B Q K B N R 
7 | P P P P P P _ P 
6 | _ _ _ _ _ _ _ _ 
5 | _ _ _ _ _ _ P _ 
4 | P _ _ _ _ _ _ _ 
3 | _ _ P _ _ P _ _ 
2 | _ P _ P P _ P P 
1 | R N B Q K B N R 
-------------------
  | A B C D E F G H 

Turn of: white
Succesful move
h2h3
8 | R N B Q K B N R 
7 | P P P P P P _ P 
6 | _ _ _ _ _ _ _ _ 
5 | _ _ _ _ _ _ P _ 
4 | P _ _ _ _ _ _ _ 
3 | _ _ P _ _ P _ P 
2 | _ P _ P P _ P _ 
1 | R N B Q K B N R 
-------------------
  | A B C D E F G H 

Turn of: black
Succesful move
g8h6
8 | R N B Q K B _ R 
7 | P P P P P P _ P 
6 | _ _ _ _ _ _ _ N 
5 | _ _ _ _ _ _ P _ 
4 | P _ _ _ _ _ _ _ 
3 | _ _ P _ _ P _ P 
2 | _ P _ P P _ P _ 
1 | R N B Q K B N R 
-------------------
  | A B C D E F G H 

Turn of: white
Succesful move
a1a2
8 | R N B Q K B _ R 
7 | P P P P P P _ P 
6 | _ _ _ _ _ _ _ N 
5 | _ _ _ _ _ _ P _ 
4 | P _ _ _ _ _ _ _ 
3 | _ _ P _ _ P _ P 
2 | R P _ P P _ P _ 
1 | _ N B Q K B N R 
-------------------
  | A B C D E F G H 

Turn of: black
Succesful move
f7f6
8 | R N B Q K B _ R 
7 | P P P P P _ _ P 
6 | _ _ _ _ _ P _ N 
5 | _ _ _ _ _ _ P _ 
4 | P _ _ _ _ _ _ _ 
3 | _ _ P _ _ P _ P 
2 | R P _ P P _ P _ 
1 | _ N B Q K B N R 
-------------------
  | A B C D E F G H 

Turn of: white
Succesful move
a4a5
8 | R N B Q K B _ R 
7 | P P P P P _ _ P 
6 | _ _ _ _ _ P _ N 
5 | P _ _ _ _ _ P _ 
4 | _ _ _ _ _ _ _ _ 
3 | _ _ P _ _ P _ P 
2 | R P _ P P _ P _ 
1 | _ N B Q K B N R 
-------------------
  | A B C D E F G H 

Turn of: black
Succesful move
e7e5
8 | R N B Q K B _ R 
7 | P P P P _ _ _ P 
6 | _ _ _ _ _ P _ N 
5 | P _ _ _ P _ P _ 
4 | _ _ _ _ _ _ _ _ 
3 | _ _ P _ _ P _ P 
2 | R P _ P P _ P _ 
1 | _ N B Q K B N R 
-------------------
  | A B C D E F G H 

Turn of: white
Succesful move
a2a3
8 | R N B Q K B _ R 
7 | P P P P _ _ _ P 
6 | _ _ _ _ _ P _ N 
5 | P _ _ _ P _ P _ 
4 | _ _ _ _ _ _ _ _ 
3 | R _ P _ _ P _ P 
2 | _ P _ P P _ P _ 
1 | _ N B Q K B N R 
-------------------
  | A B C D E F G H 

Turn of: black
Succesful move
f8e7
8 | R N B Q K _ _ R 
7 | P P P P B _ _ P 
6 | _ _ _ _ _ P _ N 
5 | P _ _ _ P _ P _ 
4 | _ _ _ _ _ _ _ _ 
3 | R _ P _ _ P _ P 
2 | _ P _ P P _ P _ 
1 | _ N B Q K B N R 
-------------------
  | A B C D E F G H 

Turn of: white
Succesful move
d1b3
8 | R N B Q K _ _ R 
7 | P P P P B _ _ P 
6 | _ _ _ _ _ P _ N 
5 | P _ _ _ P _ P _ 
4 | _ _ _ _ _ _ _ _ 
3 | R Q P _ _ P _ P 
2 | _ P _ P P _ P _ 
1 | _ N B _ K B N R 
-------------------
  | A B C D E F G H 

Turn of: black
Succesful move
h6f7
8 | R N B Q K _ _ R 
7 | P P P P B N _ P 
6 | _ _ _ _ _ P _ _ 
5 | P _ _ _ P _ P _ 
4 | _ _ _ _ _ _ _ _ 
3 | R Q P _ _ P _ P 
2 | _ P _ P P _ P _ 
1 | _ N B _ K B N R 
-------------------
  | A B C D E F G H 

Turn of: white
Succesful move
e2e3
8 | R N B Q K _ _ R 
7 | P P P P B N _ P 
6 | _ _ _ _ _ P _ _ 
5 | P _ _ _ P _ P _ 
4 | _ _ _ _ _ _ _ _ 
3 | R Q P _ P P _ P 
2 | _ P _ P _ _ P _ 
1 | _ N B _ K B N R 
-------------------
  | A B C D E F G H 

Turn of: black
Succesful move
e7a3
8 | R N B Q K _ _ R 
7 | P P P P _ N _ P 
6 | _ _ _ _ _ P _ _ 
5 | P _ _ _ P _ P _ 
4 | _ _ _ _ _ _ _ _ 
3 | B Q P _ P P _ P 
2 | _ P _ P _ _ P _ 
1 | _ N B _ K B N R 
-------------------
  | A B C D E F G H 

We are playing as White
Move history:
c2c3
g7g5
f2f3
g8h6
a2a4
h6g8
h2h3
g8h6
a1a2
f7f6
a4a5
e7e5
a2a3
f8e7
d1b3
h6f7
e2e3
e7a3
8 | R N B Q K _ _ R 
7 | P P P P _ N _ P 
6 | _ _ _ _ _ P _ _ 
5 | P _ _ _ P _ P _ 
4 | _ _ _ _ _ _ _ _ 
3 | B Q P _ P P _ P 
2 | _ P _ P _ _ P _ 
1 | _ N B _ K B N R 
-------------------
  | A B C D E F G H 

It is white's turn to play.
AI's move: b2a3
Move written: b2a3
[32;1m[Game] [0mPlayer's error code: 0
[32;1m[Game] [0mChecking move validity...
[32;1m[Board] [0mInitializing board...
[32;1m[Board] [0mLoading history file `championship/qualifiers/lizzie-iii/White/history.csv`...
[32;1m[Board] [0mLoaded 18 move(s).
[32;1m[Board] [0mLoading move file `championship/qualifiers/lizzie-iii/White/move.csv`...
[32;1m[Board] [0mWhite player is playing b2 to a3.
[32;1m[Board] [0m[5;1mWhite Pawn is taking Black Bishop.[0m
[32;1m[Board] [0m
[32;1m[Board] [0m    a b c d e f g h 
[32;1m[Board] [0m  -------------------
[32;1m[Board] [0m8 ||[30;1mr[0m|[30;1mk[0m|[30;1mb[0m|[30;1mQ[0m|[30;1mK[0m| |[7;1m [0m|[30;1mr[0m|| 8
[32;1m[Board] [0m  -------------------
[32;1m[Board] [0m7 ||[30;1mp[0m|[30;1mp[0m|[30;1mp[0m|[30;1mp[0m| |[30;1mk[0m| |[30;1mp[0m|| 7
[32;1m[Board] [0m  -------------------
[32;1m[Board] [0m6 ||[7;1m [0m| |[7;1m [0m| |[7;1m [0m|[30;1mp[0m|[7;1m [0m| || 6
[32;1m[Board] [0m  -------------------
[32;1m[Board] [0m5 ||[0;1mp[0m|[7;1m [0m| |[7;1m [0m|[30;1mp[0m|[7;1m [0m|[30;1mp[0m|[7;1m [0m|| 5
[32;1m[Board] [0m  -------------------
[32;1m[Board] [0m4 ||[7;1m [0m| |[7;1m [0m| |[7;1m [0m| |[7;1m [0m| || 4
[32;1m[Board] [0m  -------------------
[32;1m[Board] [0m3 ||[0;1mp[0m|[0;1mQ[0m|[0;1mp[0m|[7;1m [0m|[0;1mp[0m|[0;1mp[0m| |[0;1mp[0m|| 3
[32;1m[Board] [0m  -------------------
[32;1m[Board] [0m2 ||[7;1m [0m| |[7;1m [0m|[0;1mp[0m|[7;1m [0m| |[0;1mp[0m| || 2
[32;1m[Board] [0m  -------------------
[32;1m[Board] [0m1 || |[0;1mk[0m|[0;1mb[0m|[7;1m [0m|[0;1mK[0m|[0;1mb[0m|[0;1mk[0m|[0;1mr[0m|| 1
[32;1m[Board] [0m  -------------------
[32;1m[Board] [0m    a b c d e f g h
[32;1m[Board] [0m
[32;1m[Referee] [0mThis is the turn of the Black player...
[32;1m[Board] [0mInitializing board...
[32;1m[Board] [0mLoading history file `championship/qualifiers/lizzie-iii/White/history.csv`...
[32;1m[Board] [0mLoaded 19 move(s).
[32;1m[RandomPlayer] [0mComputing possible moves...
[32;1m[RandomPlayer] [0m22 possible move(s)
[32;1m[RandomPlayer] [0mPlaying random move 7 out of 22
[32;1m[Game] [0mPlayer's error code: 0
[32;1m[Game] [0mChecking move validity...
[32;1m[Board] [0mInitializing board...
[32;1m[Board] [0mLoading history file `championship/qualifiers/lizzie-iii/White/history.csv`...
[32;1m[Board] [0mLoaded 19 move(s).
[32;1m[Board] [0mLoading move file `championship/qualifiers/lizzie-iii/White/move.csv`...
[32;1m[Board] [0mBlack player is playing e5 to e4.
[32;1m[Board] [0m
[32;1m[Board] [0m    a b c d e f g h 
[32;1m[Board] [0m  -------------------
[32;1m[Board] [0m8 ||[30;1mr[0m|[30;1mk[0m|[30;1mb[0m|[30;1mQ[0m|[30;1mK[0m| |[7;1m [0m|[30;1mr[0m|| 8
[32;1m[Board] [0m  -------------------
[32;1m[Board] [0m7 ||[30;1mp[0m|[30;1mp[0m|[30;1mp[0m|[30;1mp[0m| |[30;1mk[0m| |[30;1mp[0m|| 7
[32;1m[Board] [0m  -------------------
[32;1m[Board] [0m6 ||[7;1m [0m| |[7;1m [0m| |[7;1m [0m|[30;1mp[0m|[7;1m [0m| || 6
[32;1m[Board] [0m  -------------------
[32;1m[Board] [0m5 ||[0;1mp[0m|[7;1m [0m| |[7;1m [0m| |[7;1m [0m|[30;1mp[0m|[7;1m [0m|| 5
[32;1m[Board] [0m  -------------------
[32;1m[Board] [0m4 ||[7;1m [0m| |[7;1m [0m| |[30;1mp[0m| |[7;1m [0m| || 4
[32;1m[Board] [0m  -------------------
[32;1m[Board] [0m3 ||[0;1mp[0m|[0;1mQ[0m|[0;1mp[0m|[7;1m [0m|[0;1mp[0m|[0;1mp[0m| |[0;1mp[0m|| 3
[32;1m[Board] [0m  -------------------
[32;1m[Board] [0m2 ||[7;1m [0m| |[7;1m [0m|[0;1mp[0m|[7;1m [0m| |[0;1mp[0m| || 2
[32;1m[Board] [0m  -------------------
[32;1m[Board] [0m1 || |[0;1mk[0m|[0;1mb[0m|[7;1m [0m|[0;1mK[0m|[0;1mb[0m|[0;1mk[0m|[0;1mr[0m|| 1
[32;1m[Board] [0m  -------------------
[32;1m[Board] [0m    a b c d e f g h
[32;1m[Board] [0m
[32;1m[Referee] [0mThis is the turn of the White player...
Input file: championship/qualifiers/lizzie-iii/White/history.csv
Output file: championship/qualifiers/lizzie-iii/White/move.csv
Turn of: white
Succesful move
c2c3
8 | R N B Q K B N R 
7 | P P P P P P P P 
6 | _ _ _ _ _ _ _ _ 
5 | _ _ _ _ _ _ _ _ 
4 | _ _ _ _ _ _ _ _ 
3 | _ _ P _ _ _ _ _ 
2 | P P _ P P P P P 
1 | R N B Q K B N R 
-------------------
  | A B C D E F G H 

Turn of: black
Succesful move
g7g5
8 | R N B Q K B N R 
7 | P P P P P P _ P 
6 | _ _ _ _ _ _ _ _ 
5 | _ _ _ _ _ _ P _ 
4 | _ _ _ _ _ _ _ _ 
3 | _ _ P _ _ _ _ _ 
2 | P P _ P P P P P 
1 | R N B Q K B N R 
-------------------
  | A B C D E F G H 

Turn of: white
Succesful move
f2f3
8 | R N B Q K B N R 
7 | P P P P P P _ P 
6 | _ _ _ _ _ _ _ _ 
5 | _ _ _ _ _ _ P _ 
4 | _ _ _ _ _ _ _ _ 
3 | _ _ P _ _ P _ _ 
2 | P P _ P P _ P P 
1 | R N B Q K B N R 
-------------------
  | A B C D E F G H 

Turn of: black
Succesful move
g8h6
8 | R N B Q K B _ R 
7 | P P P P P P _ P 
6 | _ _ _ _ _ _ _ N 
5 | _ _ _ _ _ _ P _ 
4 | _ _ _ _ _ _ _ _ 
3 | _ _ P _ _ P _ _ 
2 | P P _ P P _ P P 
1 | R N B Q K B N R 
-------------------
  | A B C D E F G H 

Turn of: white
Succesful move
a2a4
8 | R N B Q K B _ R 
7 | P P P P P P _ P 
6 | _ _ _ _ _ _ _ N 
5 | _ _ _ _ _ _ P _ 
4 | P _ _ _ _ _ _ _ 
3 | _ _ P _ _ P _ _ 
2 | _ P _ P P _ P P 
1 | R N B Q K B N R 
-------------------
  | A B C D E F G H 

Turn of: black
Succesful move
h6g8
8 | R N B Q K B N R 
7 | P P P P P P _ P 
6 | _ _ _ _ _ _ _ _ 
5 | _ _ _ _ _ _ P _ 
4 | P _ _ _ _ _ _ _ 
3 | _ _ P _ _ P _ _ 
2 | _ P _ P P _ P P 
1 | R N B Q K B N R 
-------------------
  | A B C D E F G H 

Turn of: white
Succesful move
h2h3
8 | R N B Q K B N R 
7 | P P P P P P _ P 
6 | _ _ _ _ _ _ _ _ 
5 | _ _ _ _ _ _ P _ 
4 | P _ _ _ _ _ _ _ 
3 | _ _ P _ _ P _ P 
2 | _ P _ P P _ P _ 
1 | R N B Q K B N R 
-------------------
  | A B C D E F G H 

Turn of: black
Succesful move
g8h6
8 | R N B Q K B _ R 
7 | P P P P P P _ P 
6 | _ _ _ _ _ _ _ N 
5 | _ _ _ _ _ _ P _ 
4 | P _ _ _ _ _ _ _ 
3 | _ _ P _ _ P _ P 
2 | _ P _ P P _ P _ 
1 | R N B Q K B N R 
-------------------
  | A B C D E F G H 

Turn of: white
Succesful move
a1a2
8 | R N B Q K B _ R 
7 | P P P P P P _ P 
6 | _ _ _ _ _ _ _ N 
5 | _ _ _ _ _ _ P _ 
4 | P _ _ _ _ _ _ _ 
3 | _ _ P _ _ P _ P 
2 | R P _ P P _ P _ 
1 | _ N B Q K B N R 
-------------------
  | A B C D E F G H 

Turn of: black
Succesful move
f7f6
8 | R N B Q K B _ R 
7 | P P P P P _ _ P 
6 | _ _ _ _ _ P _ N 
5 | _ _ _ _ _ _ P _ 
4 | P _ _ _ _ _ _ _ 
3 | _ _ P _ _ P _ P 
2 | R P _ P P _ P _ 
1 | _ N B Q K B N R 
-------------------
  | A B C D E F G H 

Turn of: white
Succesful move
a4a5
8 | R N B Q K B _ R 
7 | P P P P P _ _ P 
6 | _ _ _ _ _ P _ N 
5 | P _ _ _ _ _ P _ 
4 | _ _ _ _ _ _ _ _ 
3 | _ _ P _ _ P _ P 
2 | R P _ P P _ P _ 
1 | _ N B Q K B N R 
-------------------
  | A B C D E F G H 

Turn of: black
Succesful move
e7e5
8 | R N B Q K B _ R 
7 | P P P P _ _ _ P 
6 | _ _ _ _ _ P _ N 
5 | P _ _ _ P _ P _ 
4 | _ _ _ _ _ _ _ _ 
3 | _ _ P _ _ P _ P 
2 | R P _ P P _ P _ 
1 | _ N B Q K B N R 
-------------------
  | A B C D E F G H 

Turn of: white
Succesful move
a2a3
8 | R N B Q K B _ R 
7 | P P P P _ _ _ P 
6 | _ _ _ _ _ P _ N 
5 | P _ _ _ P _ P _ 
4 | _ _ _ _ _ _ _ _ 
3 | R _ P _ _ P _ P 
2 | _ P _ P P _ P _ 
1 | _ N B Q K B N R 
-------------------
  | A B C D E F G H 

Turn of: black
Succesful move
f8e7
8 | R N B Q K _ _ R 
7 | P P P P B _ _ P 
6 | _ _ _ _ _ P _ N 
5 | P _ _ _ P _ P _ 
4 | _ _ _ _ _ _ _ _ 
3 | R _ P _ _ P _ P 
2 | _ P _ P P _ P _ 
1 | _ N B Q K B N R 
-------------------
  | A B C D E F G H 

Turn of: white
Succesful move
d1b3
8 | R N B Q K _ _ R 
7 | P P P P B _ _ P 
6 | _ _ _ _ _ P _ N 
5 | P _ _ _ P _ P _ 
4 | _ _ _ _ _ _ _ _ 
3 | R Q P _ _ P _ P 
2 | _ P _ P P _ P _ 
1 | _ N B _ K B N R 
-------------------
  | A B C D E F G H 

Turn of: black
Succesful move
h6f7
8 | R N B Q K _ _ R 
7 | P P P P B N _ P 
6 | _ _ _ _ _ P _ _ 
5 | P _ _ _ P _ P _ 
4 | _ _ _ _ _ _ _ _ 
3 | R Q P _ _ P _ P 
2 | _ P _ P P _ P _ 
1 | _ N B _ K B N R 
-------------------
  | A B C D E F G H 

Turn of: white
Succesful move
e2e3
8 | R N B Q K _ _ R 
7 | P P P P B N _ P 
6 | _ _ _ _ _ P _ _ 
5 | P _ _ _ P _ P _ 
4 | _ _ _ _ _ _ _ _ 
3 | R Q P _ P P _ P 
2 | _ P _ P _ _ P _ 
1 | _ N B _ K B N R 
-------------------
  | A B C D E F G H 

Turn of: black
Succesful move
e7a3
8 | R N B Q K _ _ R 
7 | P P P P _ N _ P 
6 | _ _ _ _ _ P _ _ 
5 | P _ _ _ P _ P _ 
4 | _ _ _ _ _ _ _ _ 
3 | B Q P _ P P _ P 
2 | _ P _ P _ _ P _ 
1 | _ N B _ K B N R 
-------------------
  | A B C D E F G H 

Turn of: white
Succesful move
b2a3
8 | R N B Q K _ _ R 
7 | P P P P _ N _ P 
6 | _ _ _ _ _ P _ _ 
5 | P _ _ _ P _ P _ 
4 | _ _ _ _ _ _ _ _ 
3 | P Q P _ P P _ P 
2 | _ _ _ P _ _ P _ 
1 | _ N B _ K B N R 
-------------------
  | A B C D E F G H 

Turn of: black
Succesful move
e5e4
8 | R N B Q K _ _ R 
7 | P P P P _ N _ P 
6 | _ _ _ _ _ P _ _ 
5 | P _ _ _ _ _ P _ 
4 | _ _ _ _ P _ _ _ 
3 | P Q P _ P P _ P 
2 | _ _ _ P _ _ P _ 
1 | _ N B _ K B N R 
-------------------
  | A B C D E F G H 

We are playing as White
Move history:
c2c3
g7g5
f2f3
g8h6
a2a4
h6g8
h2h3
g8h6
a1a2
f7f6
a4a5
e7e5
a2a3
f8e7
d1b3
h6f7
e2e3
e7a3
b2a3
e5e4
8 | R N B Q K _ _ R 
7 | P P P P _ N _ P 
6 | _ _ _ _ _ P _ _ 
5 | P _ _ _ _ _ P _ 
4 | _ _ _ _ P _ _ _ 
3 | P Q P _ P P _ P 
2 | _ _ _ P _ _ P _ 
1 | _ N B _ K B N R 
-------------------
  | A B C D E F G H 

It is white's turn to play.
AI's move: b3c2
Move written: b3c2
[32;1m[Game] [0mPlayer's error code: 0
[32;1m[Game] [0mChecking move validity...
[32;1m[Board] [0mInitializing board...
[32;1m[Board] [0mLoading history file `championship/qualifiers/lizzie-iii/White/history.csv`...
[32;1m[Board] [0mLoaded 20 move(s).
[32;1m[Board] [0mLoading move file `championship/qualifiers/lizzie-iii/White/move.csv`...
[32;1m[Board] [0mWhite player is playing b3 to c2.
[32;1m[Board] [0m
[32;1m[Board] [0m    a b c d e f g h 
[32;1m[Board] [0m  -------------------
[32;1m[Board] [0m8 ||[30;1mr[0m|[30;1mk[0m|[30;1mb[0m|[30;1mQ[0m|[30;1mK[0m| |[7;1m [0m|[30;1mr[0m|| 8
[32;1m[Board] [0m  -------------------
[32;1m[Board] [0m7 ||[30;1mp[0m|[30;1mp[0m|[30;1mp[0m|[30;1mp[0m| |[30;1mk[0m| |[30;1mp[0m|| 7
[32;1m[Board] [0m  -------------------
[32;1m[Board] [0m6 ||[7;1m [0m| |[7;1m [0m| |[7;1m [0m|[30;1mp[0m|[7;1m [0m| || 6
[32;1m[Board] [0m  -------------------
[32;1m[Board] [0m5 ||[0;1mp[0m|[7;1m [0m| |[7;1m [0m| |[7;1m [0m|[30;1mp[0m|[7;1m [0m|| 5
[32;1m[Board] [0m  -------------------
[32;1m[Board] [0m4 ||[7;1m [0m| |[7;1m [0m| |[30;1mp[0m| |[7;1m [0m| || 4
[32;1m[Board] [0m  -------------------
[32;1m[Board] [0m3 ||[0;1mp[0m|[7;1m [0m|[0;1mp[0m|[7;1m [0m|[0;1mp[0m|[0;1mp[0m| |[0;1mp[0m|| 3
[32;1m[Board] [0m  -------------------
[32;1m[Board] [0m2 ||[7;1m [0m| |[0;1mQ[0m|[0;1mp[0m|[7;1m [0m| |[0;1mp[0m| || 2
[32;1m[Board] [0m  -------------------
[32;1m[Board] [0m1 || |[0;1mk[0m|[0;1mb[0m|[7;1m [0m|[0;1mK[0m|[0;1mb[0m|[0;1mk[0m|[0;1mr[0m|| 1
[32;1m[Board] [0m  -------------------
[32;1m[Board] [0m    a b c d e f g h
[32;1m[Board] [0m
[32;1m[Referee] [0mThis is the turn of the Black player...
[32;1m[Board] [0mInitializing board...
[32;1m[Board] [0mLoading history file `championship/qualifiers/lizzie-iii/White/history.csv`...
[32;1m[Board] [0mLoaded 21 move(s).
[32;1m[RandomPlayer] [0mComputing possible moves...
[32;1m[RandomPlayer] [0m23 possible move(s)
[32;1m[RandomPlayer] [0mPlaying random move 0 out of 23
[32;1m[Game] [0mPlayer's error code: 0
[32;1m[Game] [0mChecking move validity...
[32;1m[Board] [0mInitializing board...
[32;1m[Board] [0mLoading history file `championship/qualifiers/lizzie-iii/White/history.csv`...
[32;1m[Board] [0mLoaded 21 move(s).
[32;1m[Board] [0mLoading move file `championship/qualifiers/lizzie-iii/White/move.csv`...
[32;1m[Board] [0mBlack player is playing a7 to a6.
[32;1m[Board] [0m
[32;1m[Board] [0m    a b c d e f g h 
[32;1m[Board] [0m  -------------------
[32;1m[Board] [0m8 ||[30;1mr[0m|[30;1mk[0m|[30;1mb[0m|[30;1mQ[0m|[30;1mK[0m| |[7;1m [0m|[30;1mr[0m|| 8
[32;1m[Board] [0m  -------------------
[32;1m[Board] [0m7 || |[30;1mp[0m|[30;1mp[0m|[30;1mp[0m| |[30;1mk[0m| |[30;1mp[0m|| 7
[32;1m[Board] [0m  -------------------
[32;1m[Board] [0m6 ||[30;1mp[0m| |[7;1m [0m| |[7;1m [0m|[30;1mp[0m|[7;1m [0m| || 6
[32;1m[Board] [0m  -------------------
[32;1m[Board] [0m5 ||[0;1mp[0m|[7;1m [0m| |[7;1m [0m| |[7;1m [0m|[30;1mp[0m|[7;1m [0m|| 5
[32;1m[Board] [0m  -------------------
[32;1m[Board] [0m4 ||[7;1m [0m| |[7;1m [0m| |[30;1mp[0m| |[7;1m [0m| || 4
[32;1m[Board] [0m  -------------------
[32;1m[Board] [0m3 ||[0;1mp[0m|[7;1m [0m|[0;1mp[0m|[7;1m [0m|[0;1mp[0m|[0;1mp[0m| |[0;1mp[0m|| 3
[32;1m[Board] [0m  -------------------
[32;1m[Board] [0m2 ||[7;1m [0m| |[0;1mQ[0m|[0;1mp[0m|[7;1m [0m| |[0;1mp[0m| || 2
[32;1m[Board] [0m  -------------------
[32;1m[Board] [0m1 || |[0;1mk[0m|[0;1mb[0m|[7;1m [0m|[0;1mK[0m|[0;1mb[0m|[0;1mk[0m|[0;1mr[0m|| 1
[32;1m[Board] [0m  -------------------
[32;1m[Board] [0m    a b c d e f g h
[32;1m[Board] [0m
[32;1m[Referee] [0mThis is the turn of the White player...
Input file: championship/qualifiers/lizzie-iii/White/history.csv
Output file: championship/qualifiers/lizzie-iii/White/move.csv
Turn of: white
Succesful move
c2c3
8 | R N B Q K B N R 
7 | P P P P P P P P 
6 | _ _ _ _ _ _ _ _ 
5 | _ _ _ _ _ _ _ _ 
4 | _ _ _ _ _ _ _ _ 
3 | _ _ P _ _ _ _ _ 
2 | P P _ P P P P P 
1 | R N B Q K B N R 
-------------------
  | A B C D E F G H 

Turn of: black
Succesful move
g7g5
8 | R N B Q K B N R 
7 | P P P P P P _ P 
6 | _ _ _ _ _ _ _ _ 
5 | _ _ _ _ _ _ P _ 
4 | _ _ _ _ _ _ _ _ 
3 | _ _ P _ _ _ _ _ 
2 | P P _ P P P P P 
1 | R N B Q K B N R 
-------------------
  | A B C D E F G H 

Turn of: white
Succesful move
f2f3
8 | R N B Q K B N R 
7 | P P P P P P _ P 
6 | _ _ _ _ _ _ _ _ 
5 | _ _ _ _ _ _ P _ 
4 | _ _ _ _ _ _ _ _ 
3 | _ _ P _ _ P _ _ 
2 | P P _ P P _ P P 
1 | R N B Q K B N R 
-------------------
  | A B C D E F G H 

Turn of: black
Succesful move
g8h6
8 | R N B Q K B _ R 
7 | P P P P P P _ P 
6 | _ _ _ _ _ _ _ N 
5 | _ _ _ _ _ _ P _ 
4 | _ _ _ _ _ _ _ _ 
3 | _ _ P _ _ P _ _ 
2 | P P _ P P _ P P 
1 | R N B Q K B N R 
-------------------
  | A B C D E F G H 

Turn of: white
Succesful move
a2a4
8 | R N B Q K B _ R 
7 | P P P P P P _ P 
6 | _ _ _ _ _ _ _ N 
5 | _ _ _ _ _ _ P _ 
4 | P _ _ _ _ _ _ _ 
3 | _ _ P _ _ P _ _ 
2 | _ P _ P P _ P P 
1 | R N B Q K B N R 
-------------------
  | A B C D E F G H 

Turn of: black
Succesful move
h6g8
8 | R N B Q K B N R 
7 | P P P P P P _ P 
6 | _ _ _ _ _ _ _ _ 
5 | _ _ _ _ _ _ P _ 
4 | P _ _ _ _ _ _ _ 
3 | _ _ P _ _ P _ _ 
2 | _ P _ P P _ P P 
1 | R N B Q K B N R 
-------------------
  | A B C D E F G H 

Turn of: white
Succesful move
h2h3
8 | R N B Q K B N R 
7 | P P P P P P _ P 
6 | _ _ _ _ _ _ _ _ 
5 | _ _ _ _ _ _ P _ 
4 | P _ _ _ _ _ _ _ 
3 | _ _ P _ _ P _ P 
2 | _ P _ P P _ P _ 
1 | R N B Q K B N R 
-------------------
  | A B C D E F G H 

Turn of: black
Succesful move
g8h6
8 | R N B Q K B _ R 
7 | P P P P P P _ P 
6 | _ _ _ _ _ _ _ N 
5 | _ _ _ _ _ _ P _ 
4 | P _ _ _ _ _ _ _ 
3 | _ _ P _ _ P _ P 
2 | _ P _ P P _ P _ 
1 | R N B Q K B N R 
-------------------
  | A B C D E F G H 

Turn of: white
Succesful move
a1a2
8 | R N B Q K B _ R 
7 | P P P P P P _ P 
6 | _ _ _ _ _ _ _ N 
5 | _ _ _ _ _ _ P _ 
4 | P _ _ _ _ _ _ _ 
3 | _ _ P _ _ P _ P 
2 | R P _ P P _ P _ 
1 | _ N B Q K B N R 
-------------------
  | A B C D E F G H 

Turn of: black
Succesful move
f7f6
8 | R N B Q K B _ R 
7 | P P P P P _ _ P 
6 | _ _ _ _ _ P _ N 
5 | _ _ _ _ _ _ P _ 
4 | P _ _ _ _ _ _ _ 
3 | _ _ P _ _ P _ P 
2 | R P _ P P _ P _ 
1 | _ N B Q K B N R 
-------------------
  | A B C D E F G H 

Turn of: white
Succesful move
a4a5
8 | R N B Q K B _ R 
7 | P P P P P _ _ P 
6 | _ _ _ _ _ P _ N 
5 | P _ _ _ _ _ P _ 
4 | _ _ _ _ _ _ _ _ 
3 | _ _ P _ _ P _ P 
2 | R P _ P P _ P _ 
1 | _ N B Q K B N R 
-------------------
  | A B C D E F G H 

[...]
2 | Q _ B P N _ _ _ 
1 | _ N B _ K _ _ R 
-------------------
  | A B C D E F G H 

Turn of: white
Succesful move
d2d3
8 | _ _ B Q K N _ _ 
7 | R _ _ _ _ N _ _ 
6 | P P P _ _ _ R P 
5 | P _ _ P _ _ P _ 
4 | P _ _ _ P _ P _ 
3 | _ _ P P P P _ _ 
2 | Q _ B _ N _ _ _ 
1 | _ N B _ K _ _ R 
-------------------
  | A B C D E F G H 

Turn of: black
Succesful move
c8b7
8 | _ _ _ Q K N _ _ 
7 | R B _ _ _ N _ _ 
6 | P P P _ _ _ R P 
5 | P _ _ P _ _ P _ 
4 | P _ _ _ P _ P _ 
3 | _ _ P P P P _ _ 
2 | Q _ B _ N _ _ _ 
1 | _ N B _ K _ _ R 
-------------------
  | A B C D E F G H 

Turn of: white
Succesful move
d3d4
8 | _ _ _ Q K N _ _ 
7 | R B _ _ _ N _ _ 
6 | P P P _ _ _ R P 
5 | P _ _ P _ _ P _ 
4 | P _ _ P P _ P _ 
3 | _ _ P _ P P _ _ 
2 | Q _ B _ N _ _ _ 
1 | _ N B _ K _ _ R 
-------------------
  | A B C D E F G H 

Turn of: black
Succesful move
b6b5
8 | _ _ _ Q K N _ _ 
7 | R B _ _ _ N _ _ 
6 | P _ P _ _ _ R P 
5 | P P _ P _ _ P _ 
4 | P _ _ P P _ P _ 
3 | _ _ P _ P P _ _ 
2 | Q _ B _ N _ _ _ 
1 | _ N B _ K _ _ R 
-------------------
  | A B C D E F G H 

Turn of: white
Succesful move
a2a1
8 | _ _ _ Q K N _ _ 
7 | R B _ _ _ N _ _ 
6 | P _ P _ _ _ R P 
5 | P P _ P _ _ P _ 
4 | P _ _ P P _ P _ 
3 | _ _ P _ P P _ _ 
2 | _ _ B _ N _ _ _ 
1 | Q N B _ K _ _ R 
-------------------
  | A B C D E F G H 

Turn of: black
Succesful move
d8c7
8 | _ _ _ _ K N _ _ 
7 | R B Q _ _ N _ _ 
6 | P _ P _ _ _ R P 
5 | P P _ P _ _ P _ 
4 | P _ _ P P _ P _ 
3 | _ _ P _ P P _ _ 
2 | _ _ B _ N _ _ _ 
1 | Q N B _ K _ _ R 
-------------------
  | A B C D E F G H 

Turn of: white
Succesful move
c2d3
8 | _ _ _ _ K N _ _ 
7 | R B Q _ _ N _ _ 
6 | P _ P _ _ _ R P 
5 | P P _ P _ _ P _ 
4 | P _ _ P P _ P _ 
3 | _ _ P B P P _ _ 
2 | _ _ _ _ N _ _ _ 
1 | Q N B _ K _ _ R 
-------------------
  | A B C D E F G H 

Turn of: black
Succesful move
b7c8
8 | _ _ B _ K N _ _ 
7 | R _ Q _ _ N _ _ 
6 | P _ P _ _ _ R P 
5 | P P _ P _ _ P _ 
4 | P _ _ P P _ P _ 
3 | _ _ P B P P _ _ 
2 | _ _ _ _ N _ _ _ 
1 | Q N B _ K _ _ R 
-------------------
  | A B C D E F G H 

Turn of: white
Succesful move
a1a3
8 | _ _ B _ K N _ _ 
7 | R _ Q _ _ N _ _ 
6 | P _ P _ _ _ R P 
5 | P P _ P _ _ P _ 
4 | P _ _ P P _ P _ 
3 | Q _ P B P P _ _ 
2 | _ _ _ _ N _ _ _ 
1 | _ N B _ K _ _ R 
-------------------
  | A B C D E F G H 

Turn of: black
Succesful move
c7e5
8 | _ _ B _ K N _ _ 
7 | R _ _ _ _ N _ _ 
6 | P _ P _ _ _ R P 
5 | P P _ P Q _ P _ 
4 | P _ _ P P _ P _ 
3 | Q _ P B P P _ _ 
2 | _ _ _ _ N _ _ _ 
1 | _ N B _ K _ _ R 
-------------------
  | A B C D E F G H 

Turn of: white
Succesful move
a3d6
8 | _ _ B _ K N _ _ 
7 | R _ _ _ _ N _ _ 
6 | P _ P Q _ _ R P 
5 | P P _ P Q _ P _ 
4 | P _ _ P P _ P _ 
3 | _ _ P B P P _ _ 
2 | _ _ _ _ N _ _ _ 
1 | _ N B _ K _ _ R 
-------------------
  | A B C D E F G H 

Turn of: black
Succesful move
f7d6
8 | _ _ B _ K N _ _ 
7 | R _ _ _ _ _ _ _ 
6 | P _ P N _ _ R P 
5 | P P _ P Q _ P _ 
4 | P _ _ P P _ P _ 
3 | _ _ P B P P _ _ 
2 | _ _ _ _ N _ _ _ 
1 | _ N B _ K _ _ R 
-------------------
  | A B C D E F G H 

Turn of: white
Succesful move
c3c4
8 | _ _ B _ K N _ _ 
7 | R _ _ _ _ _ _ _ 
6 | P _ P N _ _ R P 
5 | P P _ P Q _ P _ 
4 | P _ P P P _ P _ 
3 | _ _ _ B P P _ _ 
2 | _ _ _ _ N _ _ _ 
1 | _ N B _ K _ _ R 
-------------------
  | A B C D E F G H 

Turn of: black
Succesful move
a7h7
8 | _ _ B _ K N _ _ 
7 | _ _ _ _ _ _ _ R 
6 | P _ P N _ _ R P 
5 | P P _ P Q _ P _ 
4 | P _ P P P _ P _ 
3 | _ _ _ B P P _ _ 
2 | _ _ _ _ N _ _ _ 
1 | _ N B _ K _ _ R 
-------------------
  | A B C D E F G H 

Turn of: white
Succesful move
e2g3
8 | _ _ B _ K N _ _ 
7 | _ _ _ _ _ _ _ R 
6 | P _ P N _ _ R P 
5 | P P _ P Q _ P _ 
4 | P _ P P P _ P _ 
3 | _ _ _ B P P N _ 
2 | _ _ _ _ _ _ _ _ 
1 | _ N B _ K _ _ R 
-------------------
  | A B C D E F G H 

Turn of: black
Succesful move
b5a4
8 | _ _ B _ K N _ _ 
7 | _ _ _ _ _ _ _ R 
6 | P _ P N _ _ R P 
5 | P _ _ P Q _ P _ 
4 | P _ P P P _ P _ 
3 | _ _ _ B P P N _ 
2 | _ _ _ _ _ _ _ _ 
1 | _ N B _ K _ _ R 
-------------------
  | A B C D E F G H 

Turn of: white
Succesful move
g3f5
8 | _ _ B _ K N _ _ 
7 | _ _ _ _ _ _ _ R 
6 | P _ P N _ _ R P 
5 | P _ _ P Q N P _ 
4 | P _ P P P _ P _ 
3 | _ _ _ B P P _ _ 
2 | _ _ _ _ _ _ _ _ 
1 | _ N B _ K _ _ R 
-------------------
  | A B C D E F G H 

Turn of: black
Succesful move
h7h8
8 | _ _ B _ K N _ R 
7 | _ _ _ _ _ _ _ _ 
6 | P _ P N _ _ R P 
5 | P _ _ P Q N P _ 
4 | P _ P P P _ P _ 
3 | _ _ _ B P P _ _ 
2 | _ _ _ _ _ _ _ _ 
1 | _ N B _ K _ _ R 
-------------------
  | A B C D E F G H 

Turn of: white
Succesful move
f5h6
8 | _ _ B _ K N _ R 
7 | _ _ _ _ _ _ _ _ 
6 | P _ P N _ _ R N 
5 | P _ _ P Q _ P _ 
4 | P _ P P P _ P _ 
3 | _ _ _ B P P _ _ 
2 | _ _ _ _ _ _ _ _ 
1 | _ N B _ K _ _ R 
-------------------
  | A B C D E F G H 

Turn of: black
Succesful move
e4d3
8 | _ _ B _ K N _ R 
7 | _ _ _ _ _ _ _ _ 
6 | P _ P N _ _ R N 
5 | P _ _ P Q _ P _ 
4 | P _ P P _ _ P _ 
3 | _ _ _ P P P _ _ 
2 | _ _ _ _ _ _ _ _ 
1 | _ N B _ K _ _ R 
-------------------
  | A B C D E F G H 

Turn of: white
Succesful move
h1h2
8 | _ _ B _ K N _ R 
7 | _ _ _ _ _ _ _ _ 
6 | P _ P N _ _ R N 
5 | P _ _ P Q _ P _ 
4 | P _ P P _ _ P _ 
3 | _ _ _ P P P _ _ 
2 | _ _ _ _ _ _ _ R 
1 | _ N B _ K _ _ _ 
-------------------
  | A B C D E F G H 

Turn of: black
Succesful move
g6f6
8 | _ _ B _ K N _ R 
7 | _ _ _ _ _ _ _ _ 
6 | P _ P N _ R _ N 
5 | P _ _ P Q _ P _ 
4 | P _ P P _ _ P _ 
3 | _ _ _ P P P _ _ 
2 | _ _ _ _ _ _ _ R 
1 | _ N B _ K _ _ _ 
-------------------
  | A B C D E F G H 

Turn of: white
Succesful move
h6f7
8 | _ _ B _ K N _ R 
7 | _ _ _ _ _ N _ _ 
6 | P _ P N _ R _ _ 
5 | P _ _ P Q _ P _ 
4 | P _ P P _ _ P _ 
3 | _ _ _ P P P _ _ 
2 | _ _ _ _ _ _ _ R 
1 | _ N B _ K _ _ _ 
-------------------
  | A B C D E F G H 

Turn of: black
Succesful move
f8g6
8 | _ _ B _ K _ _ R 
7 | _ _ _ _ _ N _ _ 
6 | P _ P N _ R N _ 
5 | P _ _ P Q _ P _ 
4 | P _ P P _ _ P _ 
3 | _ _ _ P P P _ _ 
2 | _ _ _ _ _ _ _ R 
1 | _ N B _ K _ _ _ 
-------------------
  | A B C D E F G H 

Turn of: white
Succesful move
c1a3
8 | _ _ B _ K _ _ R 
7 | _ _ _ _ _ N _ _ 
6 | P _ P N _ R N _ 
5 | P _ _ P Q _ P _ 
4 | P _ P P _ _ P _ 
3 | B _ _ P P P _ _ 
2 | _ _ _ _ _ _ _ R 
1 | _ N _ _ K _ _ _ 
-------------------
  | A B C D E F G H 

Turn of: black
Succesful move
e5e6
8 | _ _ B _ K _ _ R 
7 | _ _ _ _ _ N _ _ 
6 | P _ P N Q R N _ 
5 | P _ _ P _ _ P _ 
4 | P _ P P _ _ P _ 
3 | B _ _ P P P _ _ 
2 | _ _ _ _ _ _ _ R 
1 | _ N _ _ K _ _ _ 
-------------------
  | A B C D E F G H 

Turn of: white
Succesful move
f7h6
8 | _ _ B _ K _ _ R 
7 | _ _ _ _ _ _ _ _ 
6 | P _ P N Q R N N 
5 | P _ _ P _ _ P _ 
4 | P _ P P _ _ P _ 
3 | B _ _ P P P _ _ 
2 | _ _ _ _ _ _ _ R 
1 | _ N _ _ K _ _ _ 
-------------------
  | A B C D E F G H 

Turn of: black
Succesful move
f6f5
8 | _ _ B _ K _ _ R 
7 | _ _ _ _ _ _ _ _ 
6 | P _ P N Q _ N N 
5 | P _ _ P _ R P _ 
4 | P _ P P _ _ P _ 
3 | B _ _ P P P _ _ 
2 | _ _ _ _ _ _ _ R 
1 | _ N _ _ K _ _ _ 
-------------------
  | A B C D E F G H 

Turn of: white
Succesful move
h2h5
8 | _ _ B _ K _ _ R 
7 | _ _ _ _ _ _ _ _ 
6 | P _ P N Q _ N N 
5 | P _ _ P _ R P R 
4 | P _ P P _ _ P _ 
3 | B _ _ P P P _ _ 
2 | _ _ _ _ _ _ _ _ 
1 | _ N _ _ K _ _ _ 
-------------------
  | A B C D E F G H 

Turn of: black
Succesful move
f5f3
8 | _ _ B _ K _ _ R 
7 | _ _ _ _ _ _ _ _ 
6 | P _ P N Q _ N N 
5 | P _ _ P _ _ P R 
4 | P _ P P _ _ P _ 
3 | B _ _ P P R _ _ 
2 | _ _ _ _ _ _ _ _ 
1 | _ N _ _ K _ _ _ 
-------------------
  | A B C D E F G H 

Turn of: white
Succesful move
b1d2
8 | _ _ B _ K _ _ R 
7 | _ _ _ _ _ _ _ _ 
6 | P _ P N Q _ N N 
5 | P _ _ P _ _ P R 
4 | P _ P P _ _ P _ 
3 | B _ _ P P R _ _ 
2 | _ _ _ N _ _ _ _ 
1 | _ _ _ _ K _ _ _ 
-------------------
  | A B C D E F G H 

Turn of: black
Succesful move
e6e7
8 | _ _ B _ K _ _ R 
7 | _ _ _ _ Q _ _ _ 
6 | P _ P N _ _ N N 
5 | P _ _ P _ _ P R 
4 | P _ P P _ _ P _ 
3 | B _ _ P P R _ _ 
2 | _ _ _ N _ _ _ _ 
1 | _ _ _ _ K _ _ _ 
-------------------
  | A B C D E F G H 

Turn of: white
Succesful move
h5h3
8 | _ _ B _ K _ _ R 
7 | _ _ _ _ Q _ _ _ 
6 | P _ P N _ _ N N 
5 | P _ _ P _ _ P _ 
4 | P _ P P _ _ P _ 
3 | B _ _ P P R _ R 
2 | _ _ _ N _ _ _ _ 
1 | _ _ _ _ K _ _ _ 
-------------------
  | A B C D E F G H 

Turn of: black
Succesful move
f3h3
8 | _ _ B _ K _ _ R 
7 | _ _ _ _ Q _ _ _ 
6 | P _ P N _ _ N N 
5 | P _ _ P _ _ P _ 
4 | P _ P P _ _ P _ 
3 | B _ _ P P _ _ R 
2 | _ _ _ N _ _ _ _ 
1 | _ _ _ _ K _ _ _ 
-------------------
  | A B C D E F G H 

Turn of: white
Succesful move
h6f7
8 | _ _ B _ K _ _ R 
7 | _ _ _ _ Q N _ _ 
6 | P _ P N _ _ N _ 
5 | P _ _ P _ _ P _ 
4 | P _ P P _ _ P _ 
3 | B _ _ P P _ _ R 
2 | _ _ _ N _ _ _ _ 
1 | _ _ _ _ K _ _ _ 
-------------------
  | A B C D E F G H 

Turn of: black
Succesful move
e8f7
8 | _ _ B _ _ _ _ R 
7 | _ _ _ _ Q K _ _ 
6 | P _ P N _ _ N _ 
5 | P _ _ P _ _ P _ 
4 | P _ P P _ _ P _ 
3 | B _ _ P P _ _ R 
2 | _ _ _ N _ _ _ _ 
1 | _ _ _ _ K _ _ _ 
-------------------
  | A B C D E F G H 

Turn of: white
Succesful move
e1f2
8 | _ _ B _ _ _ _ R 
7 | _ _ _ _ Q K _ _ 
6 | P _ P N _ _ N _ 
5 | P _ _ P _ _ P _ 
4 | P _ P P _ _ P _ 
3 | B _ _ P P _ _ R 
2 | _ _ _ N _ K _ _ 
1 | _ _ _ _ _ _ _ _ 
-------------------
  | A B C D E F G H 

Turn of: black
Succesful move
e7f6
8 | _ _ B _ _ _ _ R 
7 | _ _ _ _ _ K _ _ 
6 | P _ P N _ Q N _ 
5 | P _ _ P _ _ P _ 
4 | P _ P P _ _ P _ 
3 | B _ _ P P _ _ R 
2 | _ _ _ N _ K _ _ 
1 | _ _ _ _ _ _ _ _ 
-------------------
  | A B C D E F G H 

Turn of: white
Succesful move
d2f3
8 | _ _ B _ _ _ _ R 
7 | _ _ _ _ _ K _ _ 
6 | P _ P N _ Q N _ 
5 | P _ _ P _ _ P _ 
4 | P _ P P _ _ P _ 
3 | B _ _ P P N _ R 
2 | _ _ _ _ _ K _ _ 
1 | _ _ _ _ _ _ _ _ 
-------------------
  | A B C D E F G H 

Turn of: black
Succesful move
f6e6
8 | _ _ B _ _ _ _ R 
7 | _ _ _ _ _ K _ _ 
6 | P _ P N Q _ N _ 
5 | P _ _ P _ _ P _ 
4 | P _ P P _ _ P _ 
3 | B _ _ P P N _ R 
2 | _ _ _ _ _ K _ _ 
1 | _ _ _ _ _ _ _ _ 
-------------------
  | A B C D E F G H 

Turn of: white
Succesful move
f3g5
8 | _ _ B _ _ _ _ R 
7 | _ _ _ _ _ K _ _ 
6 | P _ P N Q _ N _ 
5 | P _ _ P _ _ N _ 
4 | P _ P P _ _ P _ 
3 | B _ _ P P _ _ R 
2 | _ _ _ _ _ K _ _ 
1 | _ _ _ _ _ _ _ _ 
-------------------
  | A B C D E F G H 

Turn of: black
Succesful move
f7f6
8 | _ _ B _ _ _ _ R 
7 | _ _ _ _ _ _ _ _ 
6 | P _ P N Q K N _ 
5 | P _ _ P _ _ N _ 
4 | P _ P P _ _ P _ 
3 | B _ _ P P _ _ R 
2 | _ _ _ _ _ K _ _ 
1 | _ _ _ _ _ _ _ _ 
-------------------
  | A B C D E F G H 

Turn of: white
Succesful move
g5e4
8 | _ _ B _ _ _ _ R 
7 | _ _ _ _ _ _ _ _ 
6 | P _ P N Q K N _ 
5 | P _ _ P _ _ _ _ 
4 | P _ P P N _ P _ 
3 | B _ _ P P _ _ R 
2 | _ _ _ _ _ K _ _ 
1 | _ _ _ _ _ _ _ _ 
-------------------
  | A B C D E F G H 

Turn of: black
Succesful move
d6e4
8 | _ _ B _ _ _ _ R 
7 | _ _ _ _ _ _ _ _ 
6 | P _ P _ Q K N _ 
5 | P _ _ P _ _ _ _ 
4 | P _ P P N _ P _ 
3 | B _ _ P P _ _ R 
2 | _ _ _ _ _ K _ _ 
1 | _ _ _ _ _ _ _ _ 
-------------------
  | A B C D E F G H 

Turn of: white
Succesful move
f2g1
8 | _ _ B _ _ _ _ R 
7 | _ _ _ _ _ _ _ _ 
6 | P _ P _ Q K N _ 
5 | P _ _ P _ _ _ _ 
4 | P _ P P N _ P _ 
3 | B _ _ P P _ _ R 
2 | _ _ _ _ _ _ _ _ 
1 | _ _ _ _ _ _ K _ 
-------------------
  | A B C D E F G H 

Turn of: black
Succesful move
g6f4
8 | _ _ B _ _ _ _ R 
7 | _ _ _ _ _ _ _ _ 
6 | P _ P _ Q K _ _ 
5 | P _ _ P _ _ _ _ 
4 | P _ P P N N P _ 
3 | B _ _ P P _ _ R 
2 | _ _ _ _ _ _ _ _ 
1 | _ _ _ _ _ _ K _ 
-------------------
  | A B C D E F G H 

Turn of: white
Succesful move
a3b4
8 | _ _ B _ _ _ _ R 
7 | _ _ _ _ _ _ _ _ 
6 | P _ P _ Q K _ _ 
5 | P _ _ P _ _ _ _ 
4 | P B P P N N P _ 
3 | _ _ _ P P _ _ R 
2 | _ _ _ _ _ _ _ _ 
1 | _ _ _ _ _ _ K _ 
-------------------
  | A B C D E F G H 

Turn of: black
Succesful move
h3h4
8 | _ _ B _ _ _ _ R 
7 | _ _ _ _ _ _ _ _ 
6 | P _ P _ Q K _ _ 
5 | P _ _ P _ _ _ _ 
4 | P B P P N N P R 
3 | _ _ _ P P _ _ _ 
2 | _ _ _ _ _ _ _ _ 
1 | _ _ _ _ _ _ K _ 
-------------------
  | A B C D E F G H 

Turn of: white
Succesful move
b4e1
8 | _ _ B _ _ _ _ R 
7 | _ _ _ _ _ _ _ _ 
6 | P _ P _ Q K _ _ 
5 | P _ _ P _ _ _ _ 
4 | P _ P P N N P R 
3 | _ _ _ P P _ _ _ 
2 | _ _ _ _ _ _ _ _ 
1 | _ _ _ _ B _ K _ 
-------------------
  | A B C D E F G H 

Turn of: black
Succesful move
f6e7
8 | _ _ B _ _ _ _ R 
7 | _ _ _ _ K _ _ _ 
6 | P _ P _ Q _ _ _ 
5 | P _ _ P _ _ _ _ 
4 | P _ P P N N P R 
3 | _ _ _ P P _ _ _ 
2 | _ _ _ _ _ _ _ _ 
1 | _ _ _ _ B _ K _ 
-------------------
  | A B C D E F G H 

Turn of: white
Succesful move
g4g5
8 | _ _ B _ _ _ _ R 
7 | _ _ _ _ K _ _ _ 
6 | P _ P _ Q _ _ _ 
5 | P _ _ P _ _ P _ 
4 | P _ P P N N _ R 
3 | _ _ _ P P _ _ _ 
2 | _ _ _ _ _ _ _ _ 
1 | _ _ _ _ B _ K _ 
-------------------
  | A B C D E F G H 

Turn of: black
Succesful move
d5c4
8 | _ _ B _ _ _ _ R 
7 | _ _ _ _ K _ _ _ 
6 | P _ P _ Q _ _ _ 
5 | P _ _ _ _ _ P _ 
4 | P _ P P N N _ R 
3 | _ _ _ P P _ _ _ 
2 | _ _ _ _ _ _ _ _ 
1 | _ _ _ _ B _ K _ 
-------------------
  | A B C D E F G H 

Turn of: white
Succesful move
e1b4
8 | _ _ B _ _ _ _ R 
7 | _ _ _ _ K _ _ _ 
6 | P _ P _ Q _ _ _ 
5 | P _ _ _ _ _ P _ 
4 | P B P P N N _ R 
3 | _ _ _ P P _ _ _ 
2 | _ _ _ _ _ _ _ _ 
1 | _ _ _ _ _ _ K _ 
-------------------
  | A B C D E F G H 

Turn of: black
Succesful move
e4d6
8 | _ _ B _ _ _ _ R 
7 | _ _ _ _ K _ _ _ 
6 | P _ P N Q _ _ _ 
5 | P _ _ _ _ _ P _ 
4 | P B P P _ N _ R 
3 | _ _ _ P P _ _ _ 
2 | _ _ _ _ _ _ _ _ 
1 | _ _ _ _ _ _ K _ 
-------------------
  | A B C D E F G H 

Turn of: white
Succesful move
b4c5
8 | _ _ B _ _ _ _ R 
7 | _ _ _ _ K _ _ _ 
6 | P _ P N Q _ _ _ 
5 | P _ B _ _ _ P _ 
4 | P _ P P _ N _ R 
3 | _ _ _ P P _ _ _ 
2 | _ _ _ _ _ _ _ _ 
1 | _ _ _ _ _ _ K _ 
-------------------
  | A B C D E F G H 

Turn of: black
Succesful move
e7d7
8 | _ _ B _ _ _ _ R 
7 | _ _ _ K _ _ _ _ 
6 | P _ P N Q _ _ _ 
5 | P _ B _ _ _ P _ 
4 | P _ P P _ N _ R 
3 | _ _ _ P P _ _ _ 
2 | _ _ _ _ _ _ _ _ 
1 | _ _ _ _ _ _ K _ 
-------------------
  | A B C D E F G H 

Turn of: white
Succesful move
e3e4
8 | _ _ B _ _ _ _ R 
7 | _ _ _ K _ _ _ _ 
6 | P _ P N Q _ _ _ 
5 | P _ B _ _ _ P _ 
4 | P _ P P P N _ R 
3 | _ _ _ P _ _ _ _ 
2 | _ _ _ _ _ _ _ _ 
1 | _ _ _ _ _ _ K _ 
-------------------
  | A B C D E F G H 

Turn of: black
Succesful move
f4e2
8 | _ _ B _ _ _ _ R 
7 | _ _ _ K _ _ _ _ 
6 | P _ P N Q _ _ _ 
5 | P _ B _ _ _ P _ 
4 | P _ P P P _ _ R 
3 | _ _ _ P _ _ _ _ 
2 | _ _ _ _ N _ _ _ 
1 | _ _ _ _ _ _ K _ 
-------------------
  | A B C D E F G H 

Turn of: white
Succesful move
g1f2
8 | _ _ B _ _ _ _ R 
7 | _ _ _ K _ _ _ _ 
6 | P _ P N Q _ _ _ 
5 | P _ B _ _ _ P _ 
4 | P _ P P P _ _ R 
3 | _ _ _ P _ _ _ _ 
2 | _ _ _ _ N K _ _ 
1 | _ _ _ _ _ _ _ _ 
-------------------
  | A B C D E F G H 

Turn of: black
Succesful move
h8g8
8 | _ _ B _ _ _ R _ 
7 | _ _ _ K _ _ _ _ 
6 | P _ P N Q _ _ _ 
5 | P _ B _ _ _ P _ 
4 | P _ P P P _ _ R 
3 | _ _ _ P _ _ _ _ 
2 | _ _ _ _ N K _ _ 
1 | _ _ _ _ _ _ _ _ 
-------------------
  | A B C D E F G H 

Turn of: white
Succesful move
d4d5
8 | _ _ B _ _ _ R _ 
7 | _ _ _ K _ _ _ _ 
6 | P _ P N Q _ _ _ 
5 | P _ B P _ _ P _ 
4 | P _ P _ P _ _ R 
3 | _ _ _ P _ _ _ _ 
2 | _ _ _ _ N K _ _ 
1 | _ _ _ _ _ _ _ _ 
-------------------
  | A B C D E F G H 

Turn of: black
Succesful move
g8f8
8 | _ _ B _ _ R _ _ 
7 | _ _ _ K _ _ _ _ 
6 | P _ P N Q _ _ _ 
5 | P _ B P _ _ P _ 
4 | P _ P _ P _ _ R 
3 | _ _ _ P _ _ _ _ 
2 | _ _ _ _ N K _ _ 
1 | _ _ _ _ _ _ _ _ 
-------------------
  | A B C D E F G H 

We are playing as White
Move history:
c2c3
g7g5
f2f3
g8h6
a2a4
h6g8
h2h3
g8h6
a1a2
f7f6
a4a5
e7e5
a2a3
f8e7
d1b3
h6f7
e2e3
e7a3
b2a3
e5e4
b3c2
a7a6
c2a2
d7d6
a3a4
b8d7
e1d1
a8a7
d1e1
d6d5
f1d3
h8f8
g1e2
f8g8
c1a3
c7c6
g2g4
h7h6
d3c2
b7b6
h3h4
g8g6
a3c1
d7f8
h4g5
f6g5
d2d3
c8b7
d3d4
b6b5
a2a1
d8c7
c2d3
b7c8
a1a3
c7e5
a3d6
f7d6
c3c4
a7h7
e2g3
b5a4
g3f5
h7h8
f5h6
e4d3
h1h2
g6f6
h6f7
f8g6
c1a3
e5e6
f7h6
f6f5
h2h5
f5f3
b1d2
e6e7
h5h3
f3h3
h6f7
e8f7
e1f2
e7f6
d2f3
f6e6
f3g5
f7f6
g5e4
d6e4
f2g1
g6f4
a3b4
h3h4
b4e1
f6e7
g4g5
d5c4
e1b4
e4d6
b4c5
e7d7
e3e4
f4e2
g1f2
h8g8
d4d5
g8f8
8 | _ _ B _ _ R _ _ 
7 | _ _ _ K _ _ _ _ 
6 | P _ P N Q _ _ _ 
5 | P _ B P _ _ P _ 
4 | P _ P _ P _ _ R 
3 | _ _ _ P _ _ _ _ 
2 | _ _ _ _ N K _ _ 
1 | _ _ _ _ _ _ _ _ 
-------------------
  | A B C D E F G H 

It is white's turn to play.
AI's move: f2g2
Move written: f2g2
[32;1m[Game] [0mPlayer's error code: 0
[32;1m[Game] [0mChecking move validity...
[32;1m[Board] [0mInitializing board...
[32;1m[Board] [0mLoading history file `championship/qualifiers/lizzie-iii/White/history.csv`...
[32;1m[Board] [0mLoaded 108 move(s).
[32;1m[Board] [0mLoading move file `championship/qualifiers/lizzie-iii/White/move.csv`...
[32;1m[Board] [0mWhite player is playing f2 to g2.
[32;1m[Board] [0m
[32;1m[Board] [0m    a b c d e f g h 
[32;1m[Board] [0m  -------------------
[32;1m[Board] [0m8 ||[7;1m [0m| |[30;1mb[0m| |[7;1m [0m|[30;1mr[0m|[7;1m [0m| || 8
[32;1m[Board] [0m  -------------------
[32;1m[Board] [0m7 || |[7;1m [0m| |[30;1mK[0m| |[7;1m [0m| |[7;1m [0m|| 7
[32;1m[Board] [0m  -------------------
[32;1m[Board] [0m6 ||[30;1mp[0m| |[30;1mp[0m|[30;1mk[0m|[30;1mQ[0m| |[7;1m [0m| || 6
[32;1m[Board] [0m  -------------------
[32;1m[Board] [0m5 ||[0;1mp[0m|[7;1m [0m|[0;1mb[0m|[0;1mp[0m| |[7;1m [0m|[0;1mp[0m|[7;1m [0m|| 5
[32;1m[Board] [0m  -------------------
[32;1m[Board] [0m4 ||[30;1mp[0m| |[30;1mp[0m| |[0;1mp[0m| |[7;1m [0m|[30;1mr[0m|| 4
[32;1m[Board] [0m  -------------------
[32;1m[Board] [0m3 || |[7;1m [0m| |[30;1mp[0m| |[7;1m [0m| |[7;1m [0m|| 3
[32;1m[Board] [0m  -------------------
[32;1m[Board] [0m2 ||[7;1m [0m| |[7;1m [0m| |[30;1mk[0m| |[0;1mK[0m| || 2
[32;1m[Board] [0m  -------------------
[32;1m[Board] [0m1 || |[7;1m [0m| |[7;1m [0m| |[7;1m [0m| |[7;1m [0m|| 1
[32;1m[Board] [0m  -------------------
[32;1m[Board] [0m    a b c d e f g h
[32;1m[Board] [0m
[32;1m[Referee] [0mThis is the turn of the Black player...
[32;1m[Board] [0mInitializing board...
[32;1m[Board] [0mLoading history file `championship/qualifiers/lizzie-iii/White/history.csv`...
[32;1m[Board] [0mLoaded 109 move(s).
[32;1m[RandomPlayer] [0mComputing possible moves...
[32;1m[RandomPlayer] [0m55 possible move(s)
[32;1m[RandomPlayer] [0mPlaying random move 49 out of 55
[32;1m[Game] [0mPlayer's error code: 0
[32;1m[Game] [0mChecking move validity...
[32;1m[Board] [0mInitializing board...
[32;1m[Board] [0mLoading history file `championship/qualifiers/lizzie-iii/White/history.csv`...
[32;1m[Board] [0mLoaded 109 move(s).
[32;1m[Board] [0mLoading move file `championship/qualifiers/lizzie-iii/White/move.csv`...
[32;1m[Board] [0mBlack player is playing e6 to g4.
[32;1m[Board] [0m
[32;1m[Board] [0m    a b c d e f g h 
[32;1m[Board] [0m  -------------------
[32;1m[Board] [0m8 ||[7;1m [0m| |[30;1mb[0m| |[7;1m [0m|[30;1mr[0m|[7;1m [0m| || 8
[32;1m[Board] [0m  -------------------
[32;1m[Board] [0m7 || |[7;1m [0m| |[30;1mK[0m| |[7;1m [0m| |[7;1m [0m|| 7
[32;1m[Board] [0m  -------------------
[32;1m[Board] [0m6 ||[30;1mp[0m| |[30;1mp[0m|[30;1mk[0m|[7;1m [0m| |[7;1m [0m| || 6
[32;1m[Board] [0m  -------------------
[32;1m[Board] [0m5 ||[0;1mp[0m|[7;1m [0m|[0;1mb[0m|[0;1mp[0m| |[7;1m [0m|[0;1mp[0m|[7;1m [0m|| 5
[32;1m[Board] [0m  -------------------
[32;1m[Board] [0m4 ||[30;1mp[0m| |[30;1mp[0m| |[0;1mp[0m| |[30;1mQ[0m|[30;1mr[0m|| 4
[32;1m[Board] [0m  -------------------
[32;1m[Board] [0m3 || |[7;1m [0m| |[30;1mp[0m| |[7;1m [0m| |[7;1m [0m|| 3
[32;1m[Board] [0m  -------------------
[32;1m[Board] [0m2 ||[7;1m [0m| |[7;1m [0m| |[30;1mk[0m| |[0;1mK[0m| || 2
[32;1m[Board] [0m  -------------------
[32;1m[Board] [0m1 || |[7;1m [0m| |[7;1m [0m| |[7;1m [0m| |[7;1m [0m|| 1
[32;1m[Board] [0m  -------------------
[32;1m[Board] [0m    a b c d e f g h
[32;1m[Board] [0m
[32;1m[Referee] [0mThis is the turn of the White player...
[32;1m[Board] [0m[33;1m[WARNING][0m [5;1mWhite King in checkmate![0m
[32;1m[Board] [0m[33;1m[WARNING][0m The Black player wins!
