[32;1m[Board] [0mInitializing board...
[32;1m[Board] [0m
[32;1m[Board] [0m    a b c d e f g h 
[32;1m[Board] [0m  -------------------
[32;1m[Board] [0m8 ||[30;1mr[0m|[30;1mk[0m|[30;1mb[0m|[30;1mQ[0m|[30;1mK[0m|[30;1mb[0m|[30;1mk[0m|[30;1mr[0m|| 8
[32;1m[Board] [0m  -------------------
[32;1m[Board] [0m7 ||[30;1mp[0m|[30;1mp[0m|[30;1mp[0m|[30;1mp[0m|[30;1mp[0m|[30;1mp[0m|[30;1mp[0m|[30;1mp[0m|| 7
[32;1m[Board] [0m  -------------------
[32;1m[Board] [0m6 ||[7;1m [0m| |[7;1m [0m| |[7;1m [0m| |[7;1m [0m| || 6
[32;1m[Board] [0m  -------------------
[32;1m[Board] [0m5 || |[7;1m [0m| |[7;1m [0m| |[7;1m [0m| |[7;1m [0m|| 5
[32;1m[Board] [0m  -------------------
[32;1m[Board] [0m4 ||[7;1m [0m| |[7;1m [0m| |[7;1m [0m| |[7;1m [0m| || 4
[32;1m[Board] [0m  -------------------
[32;1m[Board] [0m3 || |[7;1m [0m| |[7;1m [0m| |[7;1m [0m| |[7;1m [0m|| 3
[32;1m[Board] [0m  -------------------
[32;1m[Board] [0m2 ||[0;1mp[0m|[0;1mp[0m|[0;1mp[0m|[0;1mp[0m|[0;1mp[0m|[0;1mp[0m|[0;1mp[0m|[0;1mp[0m|| 2
[32;1m[Board] [0m  -------------------
[32;1m[Board] [0m1 ||[0;1mr[0m|[0;1mk[0m|[0;1mb[0m|[0;1mQ[0m|[0;1mK[0m|[0;1mb[0m|[0;1mk[0m|[0;1mr[0m|| 1
[32;1m[Board] [0m  -------------------
[32;1m[Board] [0m    a b c d e f g h
[32;1m[Board] [0m
[32;1m[Referee] [0mThis is the turn of the White player...
Input file: championship/lizzie-iii-git-gambit/history.csv
Output file: championship/lizzie-iii-git-gambit/move.csv
We are playing as White
Move history:
8 | R N B Q K B N R 
7 | P P P P P P P P 
6 | _ _ _ _ _ _ _ _ 
5 | _ _ _ _ _ _ _ _ 
4 | _ _ _ _ _ _ _ _ 
3 | _ _ _ _ _ _ _ _ 
2 | P P P P P P P P 
1 | R N B Q K B N R 
-------------------
  | A B C D E F G H 

It is white's turn to play.
AI's move: d2d4
Move written: d2d4
[32;1m[Game] [0mPlayer's error code: 0
[32;1m[Game] [0mChecking move validity...
[32;1m[Board] [0mInitializing board...
[32;1m[Board] [0mLoading history file `championship/lizzie-iii-git-gambit/history.csv`...
[32;1m[Board] [0mLoaded 0 move(s).
[32;1m[Board] [0mLoading move file `championship/lizzie-iii-git-gambit/move.csv`...
[32;1m[Board] [0mWhite player is playing d2 to d4.
[32;1m[Board] [0m
[32;1m[Board] [0m    a b c d e f g h 
[32;1m[Board] [0m  -------------------
[32;1m[Board] [0m8 ||[30;1mr[0m|[30;1mk[0m|[30;1mb[0m|[30;1mQ[0m|[30;1mK[0m|[30;1mb[0m|[30;1mk[0m|[30;1mr[0m|| 8
[32;1m[Board] [0m  -------------------
[32;1m[Board] [0m7 ||[30;1mp[0m|[30;1mp[0m|[30;1mp[0m|[30;1mp[0m|[30;1mp[0m|[30;1mp[0m|[30;1mp[0m|[30;1mp[0m|| 7
[32;1m[Board] [0m  -------------------
[32;1m[Board] [0m6 ||[7;1m [0m| |[7;1m [0m| |[7;1m [0m| |[7;1m [0m| || 6
[32;1m[Board] [0m  -------------------
[32;1m[Board] [0m5 || |[7;1m [0m| |[7;1m [0m| |[7;1m [0m| |[7;1m [0m|| 5
[32;1m[Board] [0m  -------------------
[32;1m[Board] [0m4 ||[7;1m [0m| |[7;1m [0m|[0;1mp[0m|[7;1m [0m| |[7;1m [0m| || 4
[32;1m[Board] [0m  -------------------
[32;1m[Board] [0m3 || |[7;1m [0m| |[7;1m [0m| |[7;1m [0m| |[7;1m [0m|| 3
[32;1m[Board] [0m  -------------------
[32;1m[Board] [0m2 ||[0;1mp[0m|[0;1mp[0m|[0;1mp[0m| |[0;1mp[0m|[0;1mp[0m|[0;1mp[0m|[0;1mp[0m|| 2
[32;1m[Board] [0m  -------------------
[32;1m[Board] [0m1 ||[0;1mr[0m|[0;1mk[0m|[0;1mb[0m|[0;1mQ[0m|[0;1mK[0m|[0;1mb[0m|[0;1mk[0m|[0;1mr[0m|| 1
[32;1m[Board] [0m  -------------------
[32;1m[Board] [0m    a b c d e f g h
[32;1m[Board] [0m
[32;1m[Referee] [0mThis is the turn of the Black player...

    a   b   c   d   e   f   g   h 
8 | r | n | b | q | k | b | n | r  | 8
7 | p | p | p | p | p | p | p | p  | 7
6 |   |   |   |   |   |   |   |    | 6
5 |   |   |   |   |   |   |   |    | 5
4 |   |   |   | P |   |   |   |    | 4
3 |   |   |   |   |   |   |   |    | 3
2 | P | P | P |   | P | P | P | P  | 2
1 | R | N | B | Q | K | B | N | R  | 1
    a   b   c   d   e   f   g   h 

next move: e7e5

[32;1m[Game] [0mPlayer's error code: 0
[32;1m[Game] [0mChecking move validity...
[32;1m[Board] [0mInitializing board...
[32;1m[Board] [0mLoading history file `championship/lizzie-iii-git-gambit/history.csv`...
[32;1m[Board] [0mLoaded 1 move(s).
[32;1m[Board] [0mLoading move file `championship/lizzie-iii-git-gambit/move.csv`...
[32;1m[Board] [0mBlack player is playing e7 to e5.
[32;1m[Board] [0m
[32;1m[Board] [0m    a b c d e f g h 
[32;1m[Board] [0m  -------------------
[32;1m[Board] [0m8 ||[30;1mr[0m|[30;1mk[0m|[30;1mb[0m|[30;1mQ[0m|[30;1mK[0m|[30;1mb[0m|[30;1mk[0m|[30;1mr[0m|| 8
[32;1m[Board] [0m  -------------------
[32;1m[Board] [0m7 ||[30;1mp[0m|[30;1mp[0m|[30;1mp[0m|[30;1mp[0m| |[30;1mp[0m|[30;1mp[0m|[30;1mp[0m|| 7
[32;1m[Board] [0m  -------------------
[32;1m[Board] [0m6 ||[7;1m [0m| |[7;1m [0m| |[7;1m [0m| |[7;1m [0m| || 6
[32;1m[Board] [0m  -------------------
[32;1m[Board] [0m5 || |[7;1m [0m| |[7;1m [0m|[30;1mp[0m|[7;1m [0m| |[7;1m [0m|| 5
[32;1m[Board] [0m  -------------------
[32;1m[Board] [0m4 ||[7;1m [0m| |[7;1m [0m|[0;1mp[0m|[7;1m [0m| |[7;1m [0m| || 4
[32;1m[Board] [0m  -------------------
[32;1m[Board] [0m3 || |[7;1m [0m| |[7;1m [0m| |[7;1m [0m| |[7;1m [0m|| 3
[32;1m[Board] [0m  -------------------
[32;1m[Board] [0m2 ||[0;1mp[0m|[0;1mp[0m|[0;1mp[0m| |[0;1mp[0m|[0;1mp[0m|[0;1mp[0m|[0;1mp[0m|| 2
[32;1m[Board] [0m  -------------------
[32;1m[Board] [0m1 ||[0;1mr[0m|[0;1mk[0m|[0;1mb[0m|[0;1mQ[0m|[0;1mK[0m|[0;1mb[0m|[0;1mk[0m|[0;1mr[0m|| 1
[32;1m[Board] [0m  -------------------
[32;1m[Board] [0m    a b c d e f g h
[32;1m[Board] [0m
[32;1m[Referee] [0mThis is the turn of the White player...
Input file: championship/lizzie-iii-git-gambit/history.csv
Output file: championship/lizzie-iii-git-gambit/move.csv
Turn of: white
Succesful move
d2d4
8 | R N B Q K B N R 
7 | P P P P P P P P 
6 | _ _ _ _ _ _ _ _ 
5 | _ _ _ _ _ _ _ _ 
4 | _ _ _ P _ _ _ _ 
3 | _ _ _ _ _ _ _ _ 
2 | P P P _ P P P P 
1 | R N B Q K B N R 
-------------------
  | A B C D E F G H 

Turn of: black
Succesful move
e7e5
8 | R N B Q K B N R 
7 | P P P P _ P P P 
6 | _ _ _ _ _ _ _ _ 
5 | _ _ _ _ P _ _ _ 
4 | _ _ _ P _ _ _ _ 
3 | _ _ _ _ _ _ _ _ 
2 | P P P _ P P P P 
1 | R N B Q K B N R 
-------------------
  | A B C D E F G H 

We are playing as White
Move history:
d2d4
e7e5
8 | R N B Q K B N R 
7 | P P P P _ P P P 
6 | _ _ _ _ _ _ _ _ 
5 | _ _ _ _ P _ _ _ 
4 | _ _ _ P _ _ _ _ 
3 | _ _ _ _ _ _ _ _ 
2 | P P P _ P P P P 
1 | R N B Q K B N R 
-------------------
  | A B C D E F G H 

It is white's turn to play.
AI's move: d4e5
Move written: d4e5
[32;1m[Game] [0mPlayer's error code: 0
[32;1m[Game] [0mChecking move validity...
[32;1m[Board] [0mInitializing board...
[32;1m[Board] [0mLoading history file `championship/lizzie-iii-git-gambit/history.csv`...
[32;1m[Board] [0mLoaded 2 move(s).
[32;1m[Board] [0mLoading move file `championship/lizzie-iii-git-gambit/move.csv`...
[32;1m[Board] [0mWhite player is playing d4 to e5.
[32;1m[Board] [0m[5;1mWhite Pawn is taking Black Pawn.[0m
[32;1m[Board] [0m
[32;1m[Board] [0m    a b c d e f g h 
[32;1m[Board] [0m  -------------------
[32;1m[Board] [0m8 ||[30;1mr[0m|[30;1mk[0m|[30;1mb[0m|[30;1mQ[0m|[30;1mK[0m|[30;1mb[0m|[30;1mk[0m|[30;1mr[0m|| 8
[32;1m[Board] [0m  -------------------
[32;1m[Board] [0m7 ||[30;1mp[0m|[30;1mp[0m|[30;1mp[0m|[30;1mp[0m| |[30;1mp[0m|[30;1mp[0m|[30;1mp[0m|| 7
[32;1m[Board] [0m  -------------------
[32;1m[Board] [0m6 ||[7;1m [0m| |[7;1m [0m| |[7;1m [0m| |[7;1m [0m| || 6
[32;1m[Board] [0m  -------------------
[32;1m[Board] [0m5 || |[7;1m [0m| |[7;1m [0m|[0;1mp[0m|[7;1m [0m| |[7;1m [0m|| 5
[32;1m[Board] [0m  -------------------
[32;1m[Board] [0m4 ||[7;1m [0m| |[7;1m [0m| |[7;1m [0m| |[7;1m [0m| || 4
[32;1m[Board] [0m  -------------------
[32;1m[Board] [0m3 || |[7;1m [0m| |[7;1m [0m| |[7;1m [0m| |[7;1m [0m|| 3
[32;1m[Board] [0m  -------------------
[32;1m[Board] [0m2 ||[0;1mp[0m|[0;1mp[0m|[0;1mp[0m| |[0;1mp[0m|[0;1mp[0m|[0;1mp[0m|[0;1mp[0m|| 2
[32;1m[Board] [0m  -------------------
[32;1m[Board] [0m1 ||[0;1mr[0m|[0;1mk[0m|[0;1mb[0m|[0;1mQ[0m|[0;1mK[0m|[0;1mb[0m|[0;1mk[0m|[0;1mr[0m|| 1
[32;1m[Board] [0m  -------------------
[32;1m[Board] [0m    a b c d e f g h
[32;1m[Board] [0m
[32;1m[Referee] [0mThis is the turn of the Black player...

    a   b   c   d   e   f   g   h 
8 | r | n | b | q | k | b | n | r  | 8
7 | p | p | p | p |   | p | p | p  | 7
6 |   |   |   |   |   |   |   |    | 6
5 |   |   |   |   | P |   |   |    | 5
4 |   |   |   |   |   |   |   |    | 4
3 |   |   |   |   |   |   |   |    | 3
2 | P | P | P |   | P | P | P | P  | 2
1 | R | N | B | Q | K | B | N | R  | 1
    a   b   c   d   e   f   g   h 

next move: b8c6

[32;1m[Game] [0mPlayer's error code: 0
[32;1m[Game] [0mChecking move validity...
[32;1m[Board] [0mInitializing board...
[32;1m[Board] [0mLoading history file `championship/lizzie-iii-git-gambit/history.csv`...
[32;1m[Board] [0mLoaded 3 move(s).
[32;1m[Board] [0mLoading move file `championship/lizzie-iii-git-gambit/move.csv`...
[32;1m[Board] [0mBlack player is playing b8 to c6.
[32;1m[Board] [0m
[32;1m[Board] [0m    a b c d e f g h 
[32;1m[Board] [0m  -------------------
[32;1m[Board] [0m8 ||[30;1mr[0m| |[30;1mb[0m|[30;1mQ[0m|[30;1mK[0m|[30;1mb[0m|[30;1mk[0m|[30;1mr[0m|| 8
[32;1m[Board] [0m  -------------------
[32;1m[Board] [0m7 ||[30;1mp[0m|[30;1mp[0m|[30;1mp[0m|[30;1mp[0m| |[30;1mp[0m|[30;1mp[0m|[30;1mp[0m|| 7
[32;1m[Board] [0m  -------------------
[32;1m[Board] [0m6 ||[7;1m [0m| |[30;1mk[0m| |[7;1m [0m| |[7;1m [0m| || 6
[32;1m[Board] [0m  -------------------
[32;1m[Board] [0m5 || |[7;1m [0m| |[7;1m [0m|[0;1mp[0m|[7;1m [0m| |[7;1m [0m|| 5
[32;1m[Board] [0m  -------------------
[32;1m[Board] [0m4 ||[7;1m [0m| |[7;1m [0m| |[7;1m [0m| |[7;1m [0m| || 4
[32;1m[Board] [0m  -------------------
[32;1m[Board] [0m3 || |[7;1m [0m| |[7;1m [0m| |[7;1m [0m| |[7;1m [0m|| 3
[32;1m[Board] [0m  -------------------
[32;1m[Board] [0m2 ||[0;1mp[0m|[0;1mp[0m|[0;1mp[0m| |[0;1mp[0m|[0;1mp[0m|[0;1mp[0m|[0;1mp[0m|| 2
[32;1m[Board] [0m  -------------------
[32;1m[Board] [0m1 ||[0;1mr[0m|[0;1mk[0m|[0;1mb[0m|[0;1mQ[0m|[0;1mK[0m|[0;1mb[0m|[0;1mk[0m|[0;1mr[0m|| 1
[32;1m[Board] [0m  -------------------
[32;1m[Board] [0m    a b c d e f g h
[32;1m[Board] [0m
[32;1m[Referee] [0mThis is the turn of the White player...
Input file: championship/lizzie-iii-git-gambit/history.csv
Output file: championship/lizzie-iii-git-gambit/move.csv
Turn of: white
Succesful move
d2d4
8 | R N B Q K B N R 
7 | P P P P P P P P 
6 | _ _ _ _ _ _ _ _ 
5 | _ _ _ _ _ _ _ _ 
4 | _ _ _ P _ _ _ _ 
3 | _ _ _ _ _ _ _ _ 
2 | P P P _ P P P P 
1 | R N B Q K B N R 
-------------------
  | A B C D E F G H 

Turn of: black
Succesful move
e7e5
8 | R N B Q K B N R 
7 | P P P P _ P P P 
6 | _ _ _ _ _ _ _ _ 
5 | _ _ _ _ P _ _ _ 
4 | _ _ _ P _ _ _ _ 
3 | _ _ _ _ _ _ _ _ 
2 | P P P _ P P P P 
1 | R N B Q K B N R 
-------------------
  | A B C D E F G H 

Turn of: white
Succesful move
d4e5
8 | R N B Q K B N R 
7 | P P P P _ P P P 
6 | _ _ _ _ _ _ _ _ 
5 | _ _ _ _ P _ _ _ 
4 | _ _ _ _ _ _ _ _ 
3 | _ _ _ _ _ _ _ _ 
2 | P P P _ P P P P 
1 | R N B Q K B N R 
-------------------
  | A B C D E F G H 

Turn of: black
Succesful move
b8c6
8 | R _ B Q K B N R 
7 | P P P P _ P P P 
6 | _ _ N _ _ _ _ _ 
5 | _ _ _ _ P _ _ _ 
4 | _ _ _ _ _ _ _ _ 
3 | _ _ _ _ _ _ _ _ 
2 | P P P _ P P P P 
1 | R N B Q K B N R 
-------------------
  | A B C D E F G H 

We are playing as White
Move history:
d2d4
e7e5
d4e5
b8c6
8 | R _ B Q K B N R 
7 | P P P P _ P P P 
6 | _ _ N _ _ _ _ _ 
5 | _ _ _ _ P _ _ _ 
4 | _ _ _ _ _ _ _ _ 
3 | _ _ _ _ _ _ _ _ 
2 | P P P _ P P P P 
1 | R N B Q K B N R 
-------------------
  | A B C D E F G H 

It is white's turn to play.
AI's move: d1d5
Move written: d1d5
[32;1m[Game] [0mPlayer's error code: 0
[32;1m[Game] [0mChecking move validity...
[32;1m[Board] [0mInitializing board...
[32;1m[Board] [0mLoading history file `championship/lizzie-iii-git-gambit/history.csv`...
[32;1m[Board] [0mLoaded 4 move(s).
[32;1m[Board] [0mLoading move file `championship/lizzie-iii-git-gambit/move.csv`...
[32;1m[Board] [0mWhite player is playing d1 to d5.
[32;1m[Board] [0m
[32;1m[Board] [0m    a b c d e f g h 
[32;1m[Board] [0m  -------------------
[32;1m[Board] [0m8 ||[30;1mr[0m| |[30;1mb[0m|[30;1mQ[0m|[30;1mK[0m|[30;1mb[0m|[30;1mk[0m|[30;1mr[0m|| 8
[32;1m[Board] [0m  -------------------
[32;1m[Board] [0m7 ||[30;1mp[0m|[30;1mp[0m|[30;1mp[0m|[30;1mp[0m| |[30;1mp[0m|[30;1mp[0m|[30;1mp[0m|| 7
[32;1m[Board] [0m  -------------------
[32;1m[Board] [0m6 ||[7;1m [0m| |[30;1mk[0m| |[7;1m [0m| |[7;1m [0m| || 6
[32;1m[Board] [0m  -------------------
[32;1m[Board] [0m5 || |[7;1m [0m| |[0;1mQ[0m|[0;1mp[0m|[7;1m [0m| |[7;1m [0m|| 5
[32;1m[Board] [0m  -------------------
[32;1m[Board] [0m4 ||[7;1m [0m| |[7;1m [0m| |[7;1m [0m| |[7;1m [0m| || 4
[32;1m[Board] [0m  -------------------
[32;1m[Board] [0m3 || |[7;1m [0m| |[7;1m [0m| |[7;1m [0m| |[7;1m [0m|| 3
[32;1m[Board] [0m  -------------------
[32;1m[Board] [0m2 ||[0;1mp[0m|[0;1mp[0m|[0;1mp[0m| |[0;1mp[0m|[0;1mp[0m|[0;1mp[0m|[0;1mp[0m|| 2
[32;1m[Board] [0m  -------------------
[32;1m[Board] [0m1 ||[0;1mr[0m|[0;1mk[0m|[0;1mb[0m|[7;1m [0m|[0;1mK[0m|[0;1mb[0m|[0;1mk[0m|[0;1mr[0m|| 1
[32;1m[Board] [0m  -------------------
[32;1m[Board] [0m    a b c d e f g h
[32;1m[Board] [0m
[32;1m[Referee] [0mThis is the turn of the Black player...

    a   b   c   d   e   f   g   h 
8 | r |   | b | q | k | b | n | r  | 8
7 | p | p | p | p |   | p | p | p  | 7
6 |   |   | n |   |   |   |   |    | 6
5 |   |   |   | Q | P |   |   |    | 5
4 |   |   |   |   |   |   |   |    | 4
3 |   |   |   |   |   |   |   |    | 3
2 | P | P | P |   | P | P | P | P  | 2
1 | R | N | B |   | K | B | N | R  | 1
    a   b   c   d   e   f   g   h 

next move: f8c5

[32;1m[Game] [0mPlayer's error code: 0
[32;1m[Game] [0mChecking move validity...
[32;1m[Board] [0mInitializing board...
[32;1m[Board] [0mLoading history file `championship/lizzie-iii-git-gambit/history.csv`...
[32;1m[Board] [0mLoaded 5 move(s).
[32;1m[Board] [0mLoading move file `championship/lizzie-iii-git-gambit/move.csv`...
[32;1m[Board] [0mBlack player is playing f8 to c5.
[32;1m[Board] [0m
[32;1m[Board] [0m    a b c d e f g h 
[32;1m[Board] [0m  -------------------
[32;1m[Board] [0m8 ||[30;1mr[0m| |[30;1mb[0m|[30;1mQ[0m|[30;1mK[0m| |[30;1mk[0m|[30;1mr[0m|| 8
[32;1m[Board] [0m  -------------------
[32;1m[Board] [0m7 ||[30;1mp[0m|[30;1mp[0m|[30;1mp[0m|[30;1mp[0m| |[30;1mp[0m|[30;1mp[0m|[30;1mp[0m|| 7
[32;1m[Board] [0m  -------------------
[32;1m[Board] [0m6 ||[7;1m [0m| |[30;1mk[0m| |[7;1m [0m| |[7;1m [0m| || 6
[32;1m[Board] [0m  -------------------
[32;1m[Board] [0m5 || |[7;1m [0m|[30;1mb[0m|[0;1mQ[0m|[0;1mp[0m|[7;1m [0m| |[7;1m [0m|| 5
[32;1m[Board] [0m  -------------------
[32;1m[Board] [0m4 ||[7;1m [0m| |[7;1m [0m| |[7;1m [0m| |[7;1m [0m| || 4
[32;1m[Board] [0m  -------------------
[32;1m[Board] [0m3 || |[7;1m [0m| |[7;1m [0m| |[7;1m [0m| |[7;1m [0m|| 3
[32;1m[Board] [0m  -------------------
[32;1m[Board] [0m2 ||[0;1mp[0m|[0;1mp[0m|[0;1mp[0m| |[0;1mp[0m|[0;1mp[0m|[0;1mp[0m|[0;1mp[0m|| 2
[32;1m[Board] [0m  -------------------
[32;1m[Board] [0m1 ||[0;1mr[0m|[0;1mk[0m|[0;1mb[0m|[7;1m [0m|[0;1mK[0m|[0;1mb[0m|[0;1mk[0m|[0;1mr[0m|| 1
[32;1m[Board] [0m  -------------------
[32;1m[Board] [0m    a b c d e f g h
[32;1m[Board] [0m
[32;1m[Referee] [0mThis is the turn of the White player...
Input file: championship/lizzie-iii-git-gambit/history.csv
Output file: championship/lizzie-iii-git-gambit/move.csv
Turn of: white
Succesful move
d2d4
8 | R N B Q K B N R 
7 | P P P P P P P P 
6 | _ _ _ _ _ _ _ _ 
5 | _ _ _ _ _ _ _ _ 
4 | _ _ _ P _ _ _ _ 
3 | _ _ _ _ _ _ _ _ 
2 | P P P _ P P P P 
1 | R N B Q K B N R 
-------------------
  | A B C D E F G H 

Turn of: black
Succesful move
e7e5
8 | R N B Q K B N R 
7 | P P P P _ P P P 
6 | _ _ _ _ _ _ _ _ 
5 | _ _ _ _ P _ _ _ 
4 | _ _ _ P _ _ _ _ 
3 | _ _ _ _ _ _ _ _ 
2 | P P P _ P P P P 
1 | R N B Q K B N R 
-------------------
  | A B C D E F G H 

Turn of: white
Succesful move
d4e5
8 | R N B Q K B N R 
7 | P P P P _ P P P 
6 | _ _ _ _ _ _ _ _ 
5 | _ _ _ _ P _ _ _ 
4 | _ _ _ _ _ _ _ _ 
3 | _ _ _ _ _ _ _ _ 
2 | P P P _ P P P P 
1 | R N B Q K B N R 
-------------------
  | A B C D E F G H 

Turn of: black
Succesful move
b8c6
8 | R _ B Q K B N R 
7 | P P P P _ P P P 
6 | _ _ N _ _ _ _ _ 
5 | _ _ _ _ P _ _ _ 
4 | _ _ _ _ _ _ _ _ 
3 | _ _ _ _ _ _ _ _ 
2 | P P P _ P P P P 
1 | R N B Q K B N R 
-------------------
  | A B C D E F G H 

Turn of: white
Succesful move
d1d5
8 | R _ B Q K B N R 
7 | P P P P _ P P P 
6 | _ _ N _ _ _ _ _ 
5 | _ _ _ Q P _ _ _ 
4 | _ _ _ _ _ _ _ _ 
3 | _ _ _ _ _ _ _ _ 
2 | P P P _ P P P P 
1 | R N B _ K B N R 
-------------------
  | A B C D E F G H 

Turn of: black
Succesful move
f8c5
8 | R _ B Q K _ N R 
7 | P P P P _ P P P 
6 | _ _ N _ _ _ _ _ 
5 | _ _ B Q P _ _ _ 
4 | _ _ _ _ _ _ _ _ 
3 | _ _ _ _ _ _ _ _ 
2 | P P P _ P P P P 
1 | R N B _ K B N R 
-------------------
  | A B C D E F G H 

We are playing as White
Move history:
d2d4
e7e5
d4e5
b8c6
d1d5
f8c5
8 | R _ B Q K _ N R 
7 | P P P P _ P P P 
6 | _ _ N _ _ _ _ _ 
5 | _ _ B Q P _ _ _ 
4 | _ _ _ _ _ _ _ _ 
3 | _ _ _ _ _ _ _ _ 
2 | P P P _ P P P P 
1 | R N B _ K B N R 
-------------------
  | A B C D E F G H 

It is white's turn to play.
AI's move: f2f3
Move written: f2f3
[32;1m[Game] [0mPlayer's error code: 0
[32;1m[Game] [0mChecking move validity...
[32;1m[Board] [0mInitializing board...
[32;1m[Board] [0mLoading history file `championship/lizzie-iii-git-gambit/history.csv`...
[32;1m[Board] [0mLoaded 6 move(s).
[32;1m[Board] [0mLoading move file `championship/lizzie-iii-git-gambit/move.csv`...
[32;1m[Board] [0mWhite player is playing f2 to f3.
[32;1m[Board] [0m
[32;1m[Board] [0m    a b c d e f g h 
[32;1m[Board] [0m  -------------------
[32;1m[Board] [0m8 ||[30;1mr[0m| |[30;1mb[0m|[30;1mQ[0m|[30;1mK[0m| |[30;1mk[0m|[30;1mr[0m|| 8
[32;1m[Board] [0m  -------------------
[32;1m[Board] [0m7 ||[30;1mp[0m|[30;1mp[0m|[30;1mp[0m|[30;1mp[0m| |[30;1mp[0m|[30;1mp[0m|[30;1mp[0m|| 7
[32;1m[Board] [0m  -------------------
[32;1m[Board] [0m6 ||[7;1m [0m| |[30;1mk[0m| |[7;1m [0m| |[7;1m [0m| || 6
[32;1m[Board] [0m  -------------------
[32;1m[Board] [0m5 || |[7;1m [0m|[30;1mb[0m|[0;1mQ[0m|[0;1mp[0m|[7;1m [0m| |[7;1m [0m|| 5
[32;1m[Board] [0m  -------------------
[32;1m[Board] [0m4 ||[7;1m [0m| |[7;1m [0m| |[7;1m [0m| |[7;1m [0m| || 4
[32;1m[Board] [0m  -------------------
[32;1m[Board] [0m3 || |[7;1m [0m| |[7;1m [0m| |[0;1mp[0m| |[7;1m [0m|| 3
[32;1m[Board] [0m  -------------------
[32;1m[Board] [0m2 ||[0;1mp[0m|[0;1mp[0m|[0;1mp[0m| |[0;1mp[0m| |[0;1mp[0m|[0;1mp[0m|| 2
[32;1m[Board] [0m  -------------------
[32;1m[Board] [0m1 ||[0;1mr[0m|[0;1mk[0m|[0;1mb[0m|[7;1m [0m|[0;1mK[0m|[0;1mb[0m|[0;1mk[0m|[0;1mr[0m|| 1
[32;1m[Board] [0m  -------------------
[32;1m[Board] [0m    a b c d e f g h
[32;1m[Board] [0m
[32;1m[Referee] [0mThis is the turn of the Black player...

    a   b   c   d   e   f   g   h 
8 | r |   | b | q | k |   | n | r  | 8
7 | p | p | p | p |   | p | p | p  | 7
6 |   |   | n |   |   |   |   |    | 6
5 |   |   | b | Q | P |   |   |    | 5
4 |   |   |   |   |   |   |   |    | 4
3 |   |   |   |   |   | P |   |    | 3
2 | P | P | P |   | P |   | P | P  | 2
1 | R | N | B |   | K | B | N | R  | 1
    a   b   c   d   e   f   g   h 

next move: c5g1

[32;1m[Game] [0mPlayer's error code: 0
[32;1m[Game] [0mChecking move validity...
[32;1m[Board] [0mInitializing board...
[32;1m[Board] [0mLoading history file `championship/lizzie-iii-git-gambit/history.csv`...
[32;1m[Board] [0mLoaded 7 move(s).
[32;1m[Board] [0mLoading move file `championship/lizzie-iii-git-gambit/move.csv`...
[32;1m[Board] [0mBlack player is playing c5 to g1.
[32;1m[Board] [0m[5;1mBlack Bishop is taking White Knight.[0m
[32;1m[Board] [0m
[32;1m[Board] [0m    a b c d e f g h 
[32;1m[Board] [0m  -------------------
[32;1m[Board] [0m8 ||[30;1mr[0m| |[30;1mb[0m|[30;1mQ[0m|[30;1mK[0m| |[30;1mk[0m|[30;1mr[0m|| 8
[32;1m[Board] [0m  -------------------
[32;1m[Board] [0m7 ||[30;1mp[0m|[30;1mp[0m|[30;1mp[0m|[30;1mp[0m| |[30;1mp[0m|[30;1mp[0m|[30;1mp[0m|| 7
[32;1m[Board] [0m  -------------------
[32;1m[Board] [0m6 ||[7;1m [0m| |[30;1mk[0m| |[7;1m [0m| |[7;1m [0m| || 6
[32;1m[Board] [0m  -------------------
[32;1m[Board] [0m5 || |[7;1m [0m| |[0;1mQ[0m|[0;1mp[0m|[7;1m [0m| |[7;1m [0m|| 5
[32;1m[Board] [0m  -------------------
[32;1m[Board] [0m4 ||[7;1m [0m| |[7;1m [0m| |[7;1m [0m| |[7;1m [0m| || 4
[32;1m[Board] [0m  -------------------
[32;1m[Board] [0m3 || |[7;1m [0m| |[7;1m [0m| |[0;1mp[0m| |[7;1m [0m|| 3
[32;1m[Board] [0m  -------------------
[32;1m[Board] [0m2 ||[0;1mp[0m|[0;1mp[0m|[0;1mp[0m| |[0;1mp[0m| |[0;1mp[0m|[0;1mp[0m|| 2
[32;1m[Board] [0m  -------------------
[32;1m[Board] [0m1 ||[0;1mr[0m|[0;1mk[0m|[0;1mb[0m|[7;1m [0m|[0;1mK[0m|[0;1mb[0m|[30;1mb[0m|[0;1mr[0m|| 1
[32;1m[Board] [0m  -------------------
[32;1m[Board] [0m    a b c d e f g h
[32;1m[Board] [0m
[32;1m[Referee] [0mThis is the turn of the White player...
Input file: championship/lizzie-iii-git-gambit/history.csv
Output file: championship/lizzie-iii-git-gambit/move.csv
Turn of: white
Succesful move
d2d4
8 | R N B Q K B N R 
7 | P P P P P P P P 
6 | _ _ _ _ _ _ _ _ 
5 | _ _ _ _ _ _ _ _ 
4 | _ _ _ P _ _ _ _ 
3 | _ _ _ _ _ _ _ _ 
2 | P P P _ P P P P 
1 | R N B Q K B N R 
-------------------
  | A B C D E F G H 

Turn of: black
Succesful move
e7e5
8 | R N B Q K B N R 
7 | P P P P _ P P P 
6 | _ _ _ _ _ _ _ _ 
5 | _ _ _ _ P _ _ _ 
4 | _ _ _ P _ _ _ _ 
3 | _ _ _ _ _ _ _ _ 
2 | P P P _ P P P P 
1 | R N B Q K B N R 
-------------------
  | A B C D E F G H 

Turn of: white
Succesful move
d4e5
8 | R N B Q K B N R 
7 | P P P P _ P P P 
6 | _ _ _ _ _ _ _ _ 
5 | _ _ _ _ P _ _ _ 
4 | _ _ _ _ _ _ _ _ 
3 | _ _ _ _ _ _ _ _ 
2 | P P P _ P P P P 
1 | R N B Q K B N R 
-------------------
  | A B C D E F G H 

Turn of: black
Succesful move
b8c6
8 | R _ B Q K B N R 
7 | P P P P _ P P P 
6 | _ _ N _ _ _ _ _ 
5 | _ _ _ _ P _ _ _ 
4 | _ _ _ _ _ _ _ _ 
3 | _ _ _ _ _ _ _ _ 
2 | P P P _ P P P P 
1 | R N B Q K B N R 
-------------------
  | A B C D E F G H 

Turn of: white
Succesful move
d1d5
8 | R _ B Q K B N R 
7 | P P P P _ P P P 
6 | _ _ N _ _ _ _ _ 
5 | _ _ _ Q P _ _ _ 
4 | _ _ _ _ _ _ _ _ 
3 | _ _ _ _ _ _ _ _ 
2 | P P P _ P P P P 
1 | R N B _ K B N R 
-------------------
  | A B C D E F G H 

Turn of: black
Succesful move
f8c5
8 | R _ B Q K _ N R 
7 | P P P P _ P P P 
6 | _ _ N _ _ _ _ _ 
5 | _ _ B Q P _ _ _ 
4 | _ _ _ _ _ _ _ _ 
3 | _ _ _ _ _ _ _ _ 
2 | P P P _ P P P P 
1 | R N B _ K B N R 
-------------------
  | A B C D E F G H 

Turn of: white
Succesful move
f2f3
8 | R _ B Q K _ N R 
7 | P P P P _ P P P 
6 | _ _ N _ _ _ _ _ 
5 | _ _ B Q P _ _ _ 
4 | _ _ _ _ _ _ _ _ 
3 | _ _ _ _ _ P _ _ 
2 | P P P _ P _ P P 
1 | R N B _ K B N R 
-------------------
  | A B C D E F G H 

Turn of: black
Succesful move
c5g1
8 | R _ B Q K _ N R 
7 | P P P P _ P P P 
6 | _ _ N _ _ _ _ _ 
5 | _ _ _ Q P _ _ _ 
4 | _ _ _ _ _ _ _ _ 
3 | _ _ _ _ _ P _ _ 
2 | P P P _ P _ P P 
1 | R N B _ K B B R 
-------------------
  | A B C D E F G H 

We are playing as White
Move history:
d2d4
e7e5
d4e5
b8c6
d1d5
f8c5
f2f3
c5g1
8 | R _ B Q K _ N R 
7 | P P P P _ P P P 
6 | _ _ N _ _ _ _ _ 
5 | _ _ _ Q P _ _ _ 
4 | _ _ _ _ _ _ _ _ 
3 | _ _ _ _ _ P _ _ 
2 | P P P _ P _ P P 
1 | R N B _ K B B R 
-------------------
  | A B C D E F G H 

It is white's turn to play.
AI's move: e1d2
Move written: e1d2
[32;1m[Game] [0mPlayer's error code: 0
[32;1m[Game] [0mChecking move validity...
[32;1m[Board] [0mInitializing board...
[32;1m[Board] [0mLoading history file `championship/lizzie-iii-git-gambit/history.csv`...
[32;1m[Board] [0mLoaded 8 move(s).
[32;1m[Board] [0mLoading move file `championship/lizzie-iii-git-gambit/move.csv`...
[32;1m[Board] [0mWhite player is playing e1 to d2.
[32;1m[Board] [0m
[32;1m[Board] [0m    a b c d e f g h 
[32;1m[Board] [0m  -------------------
[32;1m[Board] [0m8 ||[30;1mr[0m| |[30;1mb[0m|[30;1mQ[0m|[30;1mK[0m| |[30;1mk[0m|[30;1mr[0m|| 8
[32;1m[Board] [0m  -------------------
[32;1m[Board] [0m7 ||[30;1mp[0m|[30;1mp[0m|[30;1mp[0m|[30;1mp[0m| |[30;1mp[0m|[30;1mp[0m|[30;1mp[0m|| 7
[32;1m[Board] [0m  -------------------
[32;1m[Board] [0m6 ||[7;1m [0m| |[30;1mk[0m| |[7;1m [0m| |[7;1m [0m| || 6
[32;1m[Board] [0m  -------------------
[32;1m[Board] [0m5 || |[7;1m [0m| |[0;1mQ[0m|[0;1mp[0m|[7;1m [0m| |[7;1m [0m|| 5
[32;1m[Board] [0m  -------------------
[32;1m[Board] [0m4 ||[7;1m [0m| |[7;1m [0m| |[7;1m [0m| |[7;1m [0m| || 4
[32;1m[Board] [0m  -------------------
[32;1m[Board] [0m3 || |[7;1m [0m| |[7;1m [0m| |[0;1mp[0m| |[7;1m [0m|| 3
[32;1m[Board] [0m  -------------------
[32;1m[Board] [0m2 ||[0;1mp[0m|[0;1mp[0m|[0;1mp[0m|[0;1mK[0m|[0;1mp[0m| |[0;1mp[0m|[0;1mp[0m|| 2
[32;1m[Board] [0m  -------------------
[32;1m[Board] [0m1 ||[0;1mr[0m|[0;1mk[0m|[0;1mb[0m|[7;1m [0m| |[0;1mb[0m|[30;1mb[0m|[0;1mr[0m|| 1
[32;1m[Board] [0m  -------------------
[32;1m[Board] [0m    a b c d e f g h
[32;1m[Board] [0m
[32;1m[Referee] [0mThis is the turn of the Black player...

    a   b   c   d   e   f   g   h 
8 | r |   | b | q | k |   | n | r  | 8
7 | p | p | p | p |   | p | p | p  | 7
6 |   |   | n |   |   |   |   |    | 6
5 |   |   |   | Q | P |   |   |    | 5
4 |   |   |   |   |   |   |   |    | 4
3 |   |   |   |   |   | P |   |    | 3
2 | P | P | P | K | P |   | P | P  | 2
1 | R | N | B |   |   | B | b | R  | 1
    a   b   c   d   e   f   g   h 

next move: c6e5

[32;1m[Game] [0mPlayer's error code: 0
[32;1m[Game] [0mChecking move validity...
[32;1m[Board] [0mInitializing board...
[32;1m[Board] [0mLoading history file `championship/lizzie-iii-git-gambit/history.csv`...
[32;1m[Board] [0mLoaded 9 move(s).
[32;1m[Board] [0mLoading move file `championship/lizzie-iii-git-gambit/move.csv`...
[32;1m[Board] [0mBlack player is playing c6 to e5.
[32;1m[Board] [0m[5;1mBlack Knight is taking White Pawn.[0m
[32;1m[Board] [0m
[32;1m[Board] [0m    a b c d e f g h 
[32;1m[Board] [0m  -------------------
[32;1m[Board] [0m8 ||[30;1mr[0m| |[30;1mb[0m|[30;1mQ[0m|[30;1mK[0m| |[30;1mk[0m|[30;1mr[0m|| 8
[32;1m[Board] [0m  -------------------
[32;1m[Board] [0m7 ||[30;1mp[0m|[30;1mp[0m|[30;1mp[0m|[30;1mp[0m| |[30;1mp[0m|[30;1mp[0m|[30;1mp[0m|| 7
[32;1m[Board] [0m  -------------------
[32;1m[Board] [0m6 ||[7;1m [0m| |[7;1m [0m| |[7;1m [0m| |[7;1m [0m| || 6
[32;1m[Board] [0m  -------------------
[32;1m[Board] [0m5 || |[7;1m [0m| |[0;1mQ[0m|[30;1mk[0m|[7;1m [0m| |[7;1m [0m|| 5
[32;1m[Board] [0m  -------------------
[32;1m[Board] [0m4 ||[7;1m [0m| |[7;1m [0m| |[7;1m [0m| |[7;1m [0m| || 4
[32;1m[Board] [0m  -------------------
[32;1m[Board] [0m3 || |[7;1m [0m| |[7;1m [0m| |[0;1mp[0m| |[7;1m [0m|| 3
[32;1m[Board] [0m  -------------------
[32;1m[Board] [0m2 ||[0;1mp[0m|[0;1mp[0m|[0;1mp[0m|[0;1mK[0m|[0;1mp[0m| |[0;1mp[0m|[0;1mp[0m|| 2
[32;1m[Board] [0m  -------------------
[32;1m[Board] [0m1 ||[0;1mr[0m|[0;1mk[0m|[0;1mb[0m|[7;1m [0m| |[0;1mb[0m|[30;1mb[0m|[0;1mr[0m|| 1
[32;1m[Board] [0m  -------------------
[32;1m[Board] [0m    a b c d e f g h
[32;1m[Board] [0m
[32;1m[Referee] [0mThis is the turn of the White player...
Input file: championship/lizzie-iii-git-gambit/history.csv
Output file: championship/lizzie-iii-git-gambit/move.csv
Turn of: white
Succesful move
d2d4
8 | R N B Q K B N R 
7 | P P P P P P P P 
6 | _ _ _ _ _ _ _ _ 
5 | _ _ _ _ _ _ _ _ 
4 | _ _ _ P _ _ _ _ 
3 | _ _ _ _ _ _ _ _ 
2 | P P P _ P P P P 
1 | R N B Q K B N R 
-------------------
  | A B C D E F G H 

Turn of: black
Succesful move
e7e5
8 | R N B Q K B N R 
7 | P P P P _ P P P 
6 | _ _ _ _ _ _ _ _ 
5 | _ _ _ _ P _ _ _ 
4 | _ _ _ P _ _ _ _ 
3 | _ _ _ _ _ _ _ _ 
2 | P P P _ P P P P 
1 | R N B Q K B N R 
-------------------
  | A B C D E F G H 

Turn of: white
Succesful move
d4e5
8 | R N B Q K B N R 
7 | P P P P _ P P P 
6 | _ _ _ _ _ _ _ _ 
5 | _ _ _ _ P _ _ _ 
4 | _ _ _ _ _ _ _ _ 
3 | _ _ _ _ _ _ _ _ 
2 | P P P _ P P P P 
1 | R N B Q K B N R 
-------------------
  | A B C D E F G H 

Turn of: black
Succesful move
b8c6
8 | R _ B Q K B N R 
7 | P P P P _ P P P 
6 | _ _ N _ _ _ _ _ 
5 | _ _ _ _ P _ _ _ 
4 | _ _ _ _ _ _ _ _ 
3 | _ _ _ _ _ _ _ _ 
2 | P P P _ P P P P 
1 | R N B Q K B N R 
-------------------
  | A B C D E F G H 

Turn of: white
Succesful move
d1d5
8 | R _ B Q K B N R 
7 | P P P P _ P P P 
6 | _ _ N _ _ _ _ _ 
5 | _ _ _ Q P _ _ _ 
4 | _ _ _ _ _ _ _ _ 
3 | _ _ _ _ _ _ _ _ 
2 | P P P _ P P P P 
1 | R N B _ K B N R 
-------------------
  | A B C D E F G H 

Turn of: black
Succesful move
f8c5
8 | R _ B Q K _ N R 
7 | P P P P _ P P P 
6 | _ _ N _ _ _ _ _ 
5 | _ _ B Q P _ _ _ 
4 | _ _ _ _ _ _ _ _ 
3 | _ _ _ _ _ _ _ _ 
2 | P P P _ P P P P 
1 | R N B _ K B N R 
-------------------
  | A B C D E F G H 

Turn of: white
Succesful move
f2f3
8 | R _ B Q K _ N R 
7 | P P P P _ P P P 
6 | _ _ N _ _ _ _ _ 
5 | _ _ B Q P _ _ _ 
4 | _ _ _ _ _ _ _ _ 
3 | _ _ _ _ _ P _ _ 
2 | P P P _ P _ P P 
1 | R N B _ K B N R 
-------------------
  | A B C D E F G H 

Turn of: black
Succesful move
c5g1
8 | R _ B Q K _ N R 
7 | P P P P _ P P P 
6 | _ _ N _ _ _ _ _ 
5 | _ _ _ Q P _ _ _ 
4 | _ _ _ _ _ _ _ _ 
3 | _ _ _ _ _ P _ _ 
2 | P P P _ P _ P P 
1 | R N B _ K B B R 
-------------------
  | A B C D E F G H 

Turn of: white
Succesful move
e1d2
8 | R _ B Q K _ N R 
7 | P P P P _ P P P 
6 | _ _ N _ _ _ _ _ 
5 | _ _ _ Q P _ _ _ 
4 | _ _ _ _ _ _ _ _ 
3 | _ _ _ _ _ P _ _ 
2 | P P P K P _ P P 
1 | R N B _ _ B B R 
-------------------
  | A B C D E F G H 

Turn of: black
Succesful move
c6e5
8 | R _ B Q K _ N R 
7 | P P P P _ P P P 
6 | _ _ _ _ _ _ _ _ 
5 | _ _ _ Q N _ _ _ 
4 | _ _ _ _ _ _ _ _ 
3 | _ _ _ _ _ P _ _ 
2 | P P P K P _ P P 
1 | R N B _ _ B B R 
-------------------
  | A B C D E F G H 

We are playing as White
Move history:
d2d4
e7e5
d4e5
b8c6
d1d5
f8c5
f2f3
c5g1
e1d2
c6e5
8 | R _ B Q K _ N R 
7 | P P P P _ P P P 
6 | _ _ _ _ _ _ _ _ 
5 | _ _ _ Q N _ _ _ 
4 | _ _ _ _ _ _ _ _ 
3 | _ _ _ _ _ P _ _ 
2 | P P P K P _ P P 
1 | R N B _ _ B B R 
-------------------
  | A B C D E F G H 

It is white's turn to play.
AI's move: d5d7
Move written: d5d7
[32;1m[Game] [0mPlayer's error code: 0
[32;1m[Game] [0mChecking move validity...
[32;1m[Board] [0mInitializing board...
[32;1m[Board] [0mLoading history file `championship/lizzie-iii-git-gambit/history.csv`...
[32;1m[Board] [0mLoaded 10 move(s).
[32;1m[Board] [0mLoading move file `championship/lizzie-iii-git-gambit/move.csv`...
[32;1m[Board] [0mWhite player is playing d5 to d7.
[32;1m[Board] [0m[5;1mWhite Queen is taking Black Pawn.[0m
[32;1m[Board] [0m
[32;1m[Board] [0m    a b c d e f g h 
[32;1m[Board] [0m  -------------------
[32;1m[Board] [0m8 ||[30;1mr[0m| |[30;1mb[0m|[30;1mQ[0m|[30;1mK[0m| |[30;1mk[0m|[30;1mr[0m|| 8
[32;1m[Board] [0m  -------------------
[32;1m[Board] [0m7 ||[30;1mp[0m|[30;1mp[0m|[30;1mp[0m|[0;1mQ[0m| |[30;1mp[0m|[30;1mp[0m|[30;1mp[0m|| 7
[32;1m[Board] [0m  -------------------
[32;1m[Board] [0m6 ||[7;1m [0m| |[7;1m [0m| |[7;1m [0m| |[7;1m [0m| || 6
[32;1m[Board] [0m  -------------------
[32;1m[Board] [0m5 || |[7;1m [0m| |[7;1m [0m|[30;1mk[0m|[7;1m [0m| |[7;1m [0m|| 5
[32;1m[Board] [0m  -------------------
[32;1m[Board] [0m4 ||[7;1m [0m| |[7;1m [0m| |[7;1m [0m| |[7;1m [0m| || 4
[32;1m[Board] [0m  -------------------
[32;1m[Board] [0m3 || |[7;1m [0m| |[7;1m [0m| |[0;1mp[0m| |[7;1m [0m|| 3
[32;1m[Board] [0m  -------------------
[32;1m[Board] [0m2 ||[0;1mp[0m|[0;1mp[0m|[0;1mp[0m|[0;1mK[0m|[0;1mp[0m| |[0;1mp[0m|[0;1mp[0m|| 2
[32;1m[Board] [0m  -------------------
[32;1m[Board] [0m1 ||[0;1mr[0m|[0;1mk[0m|[0;1mb[0m|[7;1m [0m| |[0;1mb[0m|[30;1mb[0m|[0;1mr[0m|| 1
[32;1m[Board] [0m  -------------------
[32;1m[Board] [0m    a b c d e f g h
[32;1m[Board] [0m
[32;1m[Referee] [0mThis is the turn of the Black player...
[32;1m[Board] [0m[33;1m[WARNING][0m [5;1mBlack King in check![0m
[32;1m[Board] [0m[33;1m[WARNING][0m    Threatened by White Queen (d7)

    a   b   c   d   e   f   g   h 
8 | r |   | b | q | k |   | n | r  | 8
7 | p | p | p | Q |   | p | p | p  | 7
6 |   |   |   |   |   |   |   |    | 6
5 |   |   |   |   | n |   |   |    | 5
4 |   |   |   |   |   |   |   |    | 4
3 |   |   |   |   |   | P |   |    | 3
2 | P | P | P | K | P |   | P | P  | 2
1 | R | N | B |   |   | B | b | R  | 1
    a   b   c   d   e   f   g   h 

next move: d8d7

[32;1m[Game] [0mPlayer's error code: 0
[32;1m[Game] [0mChecking move validity...
[32;1m[Board] [0mInitializing board...
[32;1m[Board] [0mLoading history file `championship/lizzie-iii-git-gambit/history.csv`...
[32;1m[Board] [0mLoaded 11 move(s).
[32;1m[Board] [0mLoading move file `championship/lizzie-iii-git-gambit/move.csv`...
[32;1m[Board] [0mBlack player is playing d8 to d7.
[32;1m[Board] [0m[5;1mBlack Queen is taking White Queen.[0m
[32;1m[Board] [0m
[32;1m[Board] [0m    a b c d e f g h 
[32;1m[Board] [0m  -------------------
[32;1m[Board] [0m8 ||[30;1mr[0m| |[30;1mb[0m| |[30;1mK[0m| |[30;1mk[0m|[30;1mr[0m|| 8
[32;1m[Board] [0m  -------------------
[32;1m[Board] [0m7 ||[30;1mp[0m|[30;1mp[0m|[30;1mp[0m|[30;1mQ[0m| |[30;1mp[0m|[30;1mp[0m|[30;1mp[0m|| 7
[32;1m[Board] [0m  -------------------
[32;1m[Board] [0m6 ||[7;1m [0m| |[7;1m [0m| |[7;1m [0m| |[7;1m [0m| || 6
[32;1m[Board] [0m  -------------------
[32;1m[Board] [0m5 || |[7;1m [0m| |[7;1m [0m|[30;1mk[0m|[7;1m [0m| |[7;1m [0m|| 5
[32;1m[Board] [0m  -------------------
[32;1m[Board] [0m4 ||[7;1m [0m| |[7;1m [0m| |[7;1m [0m| |[7;1m [0m| || 4
[32;1m[Board] [0m  -------------------
[32;1m[Board] [0m3 || |[7;1m [0m| |[7;1m [0m| |[0;1mp[0m| |[7;1m [0m|| 3
[32;1m[Board] [0m  -------------------
[32;1m[Board] [0m2 ||[0;1mp[0m|[0;1mp[0m|[0;1mp[0m|[0;1mK[0m|[0;1mp[0m| |[0;1mp[0m|[0;1mp[0m|| 2
[32;1m[Board] [0m  -------------------
[32;1m[Board] [0m1 ||[0;1mr[0m|[0;1mk[0m|[0;1mb[0m|[7;1m [0m| |[0;1mb[0m|[30;1mb[0m|[0;1mr[0m|| 1
[32;1m[Board] [0m  -------------------
[32;1m[Board] [0m    a b c d e f g h
[32;1m[Board] [0m
[32;1m[Referee] [0mThis is the turn of the White player...
[32;1m[Board] [0m[33;1m[WARNING][0m [5;1mWhite King in check![0m
[32;1m[Board] [0m[33;1m[WARNING][0m    Threatened by Black Queen (d7)
Input file: championship/lizzie-iii-git-gambit/history.csv
Output file: championship/lizzie-iii-git-gambit/move.csv
Turn of: white
Succesful move
d2d4
8 | R N B Q K B N R 
7 | P P P P P P P P 
6 | _ _ _ _ _ _ _ _ 
5 | _ _ _ _ _ _ _ _ 
4 | _ _ _ P _ _ _ _ 
3 | _ _ _ _ _ _ _ _ 
2 | P P P _ P P P P 
1 | R N B Q K B N R 
-------------------
  | A B C D E F G H 

Turn of: black
Succesful move
e7e5
8 | R N B Q K B N R 
7 | P P P P _ P P P 
6 | _ _ _ _ _ _ _ _ 
5 | _ _ _ _ P _ _ _ 
4 | _ _ _ P _ _ _ _ 
3 | _ _ _ _ _ _ _ _ 
2 | P P P _ P P P P 
1 | R N B Q K B N R 
-------------------
  | A B C D E F G H 

Turn of: white
Succesful move
d4e5
8 | R N B Q K B N R 
7 | P P P P _ P P P 
6 | _ _ _ _ _ _ _ _ 
5 | _ _ _ _ P _ _ _ 
4 | _ _ _ _ _ _ _ _ 
3 | _ _ _ _ _ _ _ _ 
2 | P P P _ P P P P 
1 | R N B Q K B N R 
-------------------
  | A B C D E F G H 

Turn of: black
Succesful move
b8c6
8 | R _ B Q K B N R 
7 | P P P P _ P P P 
6 | _ _ N _ _ _ _ _ 
5 | _ _ _ _ P _ _ _ 
4 | _ _ _ _ _ _ _ _ 
3 | _ _ _ _ _ _ _ _ 
2 | P P P _ P P P P 
1 | R N B Q K B N R 
-------------------
  | A B C D E F G H 

Turn of: white
Succesful move
d1d5
8 | R _ B Q K B N R 
7 | P P P P _ P P P 
6 | _ _ N _ _ _ _ _ 
5 | _ _ _ Q P _ _ _ 
4 | _ _ _ _ _ _ _ _ 
3 | _ _ _ _ _ _ _ _ 
2 | P P P _ P P P P 
1 | R N B _ K B N R 
-------------------
  | A B C D E F G H 

Turn of: black
Succesful move
f8c5
8 | R _ B Q K _ N R 
7 | P P P P _ P P P 
6 | _ _ N _ _ _ _ _ 
5 | _ _ B Q P _ _ _ 
4 | _ _ _ _ _ _ _ _ 
3 | _ _ _ _ _ _ _ _ 
2 | P P P _ P P P P 
1 | R N B _ K B N R 
-------------------
  | A B C D E F G H 

Turn of: white
Succesful move
f2f3
8 | R _ B Q K _ N R 
7 | P P P P _ P P P 
6 | _ _ N _ _ _ _ _ 
5 | _ _ B Q P _ _ _ 
4 | _ _ _ _ _ _ _ _ 
3 | _ _ _ _ _ P _ _ 
2 | P P P _ P _ P P 
1 | R N B _ K B N R 
-------------------
  | A B C D E F G H 

Turn of: black
Succesful move
c5g1
8 | R _ B Q K _ N R 
7 | P P P P _ P P P 
6 | _ _ N _ _ _ _ _ 
5 | _ _ _ Q P _ _ _ 
4 | _ _ _ _ _ _ _ _ 
3 | _ _ _ _ _ P _ _ 
2 | P P P _ P _ P P 
1 | R N B _ K B B R 
-------------------
  | A B C D E F G H 

Turn of: white
Succesful move
e1d2
8 | R _ B Q K _ N R 
7 | P P P P _ P P P 
6 | _ _ N _ _ _ _ _ 
5 | _ _ _ Q P _ _ _ 
4 | _ _ _ _ _ _ _ _ 
3 | _ _ _ _ _ P _ _ 
2 | P P P K P _ P P 
1 | R N B _ _ B B R 
-------------------
  | A B C D E F G H 

Turn of: black
Succesful move
c6e5
8 | R _ B Q K _ N R 
7 | P P P P _ P P P 
6 | _ _ _ _ _ _ _ _ 
5 | _ _ _ Q N _ _ _ 
4 | _ _ _ _ _ _ _ _ 
3 | _ _ _ _ _ P _ _ 
2 | P P P K P _ P P 
1 | R N B _ _ B B R 
-------------------
  | A B C D E F G H 

Turn of: white
Succesful move
d5d7
8 | R _ B Q K _ N R 
7 | P P P Q _ P P P 
6 | _ _ _ _ _ _ _ _ 
5 | _ _ _ _ N _ _ _ 
4 | _ _ _ _ _ _ _ _ 
3 | _ _ _ _ _ P _ _ 
2 | P P P K P _ P P 
1 | R N B _ _ B B R 
-------------------
  | A B C D E F G H 

Turn of: black
Succesful move
d8d7
8 | R _ B _ K _ N R 
7 | P P P Q _ P P P 
6 | _ _ _ _ _ _ _ _ 
5 | _ _ _ _ N _ _ _ 
4 | _ _ _ _ _ _ _ _ 
3 | _ _ _ _ _ P _ _ 
2 | P P P K P _ P P 
1 | R N B _ _ B B R 
-------------------
  | A B C D E F G H 

We are playing as White
Move history:
d2d4
e7e5
d4e5
b8c6
d1d5
f8c5
f2f3
c5g1
e1d2
c6e5
d5d7
d8d7
8 | R _ B _ K _ N R 
7 | P P P Q _ P P P 
6 | _ _ _ _ _ _ _ _ 
5 | _ _ _ _ N _ _ _ 
4 | _ _ _ _ _ _ _ _ 
3 | _ _ _ _ _ P _ _ 
2 | P P P K P _ P P 
1 | R N B _ _ B B R 
-------------------
  | A B C D E F G H 

It is white's turn to play.
AI's move: d2e1
Move written: d2e1
[32;1m[Game] [0mPlayer's error code: 0
[32;1m[Game] [0mChecking move validity...
[32;1m[Board] [0mInitializing board...
[32;1m[Board] [0mLoading history file `championship/lizzie-iii-git-gambit/history.csv`...
[32;1m[Board] [0mLoaded 12 move(s).
[32;1m[Board] [0mLoading move file `championship/lizzie-iii-git-gambit/move.csv`...
[32;1m[Board] [0mWhite player is playing d2 to e1.
[32;1m[Board] [0m
[32;1m[Board] [0m    a b c d e f g h 
[32;1m[Board] [0m  -------------------
[32;1m[Board] [0m8 ||[30;1mr[0m| |[30;1mb[0m| |[30;1mK[0m| |[30;1mk[0m|[30;1mr[0m|| 8
[32;1m[Board] [0m  -------------------
[32;1m[Board] [0m7 ||[30;1mp[0m|[30;1mp[0m|[30;1mp[0m|[30;1mQ[0m| |[30;1mp[0m|[30;1mp[0m|[30;1mp[0m|| 7
[32;1m[Board] [0m  -------------------
[32;1m[Board] [0m6 ||[7;1m [0m| |[7;1m [0m| |[7;1m [0m| |[7;1m [0m| || 6
[32;1m[Board] [0m  -------------------
[32;1m[Board] [0m5 || |[7;1m [0m| |[7;1m [0m|[30;1mk[0m|[7;1m [0m| |[7;1m [0m|| 5
[32;1m[Board] [0m  -------------------
[32;1m[Board] [0m4 ||[7;1m [0m| |[7;1m [0m| |[7;1m [0m| |[7;1m [0m| || 4
[32;1m[Board] [0m  -------------------
[32;1m[Board] [0m3 || |[7;1m [0m| |[7;1m [0m| |[0;1mp[0m| |[7;1m [0m|| 3
[32;1m[Board] [0m  -------------------
[32;1m[Board] [0m2 ||[0;1mp[0m|[0;1mp[0m|[0;1mp[0m| |[0;1mp[0m| |[0;1mp[0m|[0;1mp[0m|| 2
[32;1m[Board] [0m  -------------------
[32;1m[Board] [0m1 ||[0;1mr[0m|[0;1mk[0m|[0;1mb[0m|[7;1m [0m|[0;1mK[0m|[0;1mb[0m|[30;1mb[0m|[0;1mr[0m|| 1
[32;1m[Board] [0m  -------------------
[32;1m[Board] [0m    a b c d e f g h
[32;1m[Board] [0m
[32;1m[Referee] [0mThis is the turn of the Black player...

    a   b   c   d   e   f   g   h 
8 | r |   | b |   | k |   | n | r  | 8
7 | p | p | p | q |   | p | p | p  | 7
6 |   |   |   |   |   |   |   |    | 6
5 |   |   |   |   | n |   |   |    | 5
4 |   |   |   |   |   |   |   |    | 4
3 |   |   |   |   |   | P |   |    | 3
2 | P | P | P |   | P |   | P | P  | 2
1 | R | N | B |   | K | B | b | R  | 1
    a   b   c   d   e   f   g   h 

next move: g1h2

[32;1m[Game] [0mPlayer's error code: 0
[32;1m[Game] [0mChecking move validity...
[32;1m[Board] [0mInitializing board...
[32;1m[Board] [0mLoading history file `championship/lizzie-iii-git-gambit/history.csv`...
[32;1m[Board] [0mLoaded 13 move(s).
[32;1m[Board] [0mLoading move file `championship/lizzie-iii-git-gambit/move.csv`...
[32;1m[Board] [0mBlack player is playing g1 to h2.
[32;1m[Board] [0m[5;1mBlack Bishop is taking White Pawn.[0m
[32;1m[Board] [0m
[32;1m[Board] [0m    a b c d e f g h 
[32;1m[Board] [0m  -------------------
[32;1m[Board] [0m8 ||[30;1mr[0m| |[30;1mb[0m| |[30;1mK[0m| |[30;1mk[0m|[30;1mr[0m|| 8
[32;1m[Board] [0m  -------------------
[32;1m[Board] [0m7 ||[30;1mp[0m|[30;1mp[0m|[30;1mp[0m|[30;1mQ[0m| |[30;1mp[0m|[30;1mp[0m|[30;1mp[0m|| 7
[32;1m[Board] [0m  -------------------
[32;1m[Board] [0m6 ||[7;1m [0m| |[7;1m [0m| |[7;1m [0m| |[7;1m [0m| || 6
[32;1m[Board] [0m  -------------------
[32;1m[Board] [0m5 || |[7;1m [0m| |[7;1m [0m|[30;1mk[0m|[7;1m [0m| |[7;1m [0m|| 5
[32;1m[Board] [0m  -------------------
[32;1m[Board] [0m4 ||[7;1m [0m| |[7;1m [0m| |[7;1m [0m| |[7;1m [0m| || 4
[32;1m[Board] [0m  -------------------
[32;1m[Board] [0m3 || |[7;1m [0m| |[7;1m [0m| |[0;1mp[0m| |[7;1m [0m|| 3
[32;1m[Board] [0m  -------------------
[32;1m[Board] [0m2 ||[0;1mp[0m|[0;1mp[0m|[0;1mp[0m| |[0;1mp[0m| |[0;1mp[0m|[30;1mb[0m|| 2
[32;1m[Board] [0m  -------------------
[32;1m[Board] [0m1 ||[0;1mr[0m|[0;1mk[0m|[0;1mb[0m|[7;1m [0m|[0;1mK[0m|[0;1mb[0m| |[0;1mr[0m|| 1
[32;1m[Board] [0m  -------------------
[32;1m[Board] [0m    a b c d e f g h
[32;1m[Board] [0m
[32;1m[Referee] [0mThis is the turn of the White player...
Input file: championship/lizzie-iii-git-gambit/history.csv
Output file: championship/lizzie-iii-git-gambit/move.csv
Turn of: white
Succesful move
d2d4
8 | R N B Q K B N R 
7 | P P P P P P P P 
6 | _ _ _ _ _ _ _ _ 
5 | _ _ _ _ _ _ _ _ 
4 | _ _ _ P _ _ _ _ 
3 | _ _ _ _ _ _ _ _ 
2 | P P P _ P P P P 
1 | R N B Q K B N R 
-------------------
  | A B C D E F G H 

Turn of: black
Succesful move
e7e5
8 | R N B Q K B N R 
7 | P P P P _ P P P 
6 | _ _ _ _ _ _ _ _ 
5 | _ _ _ _ P _ _ _ 
4 | _ _ _ P _ _ _ _ 
3 | _ _ _ _ _ _ _ _ 
2 | P P P _ P P P P 
1 | R N B Q K B N R 
-------------------
  | A B C D E F G H 

Turn of: white
Succesful move
d4e5
8 | R N B Q K B N R 
7 | P P P P _ P P P 
6 | _ _ _ _ _ _ _ _ 
5 | _ _ _ _ P _ _ _ 
4 | _ _ _ _ _ _ _ _ 
3 | _ _ _ _ _ _ _ _ 
2 | P P P _ P P P P 
1 | R N B Q K B N R 
-------------------
  | A B C D E F G H 

Turn of: black
Succesful move
b8c6
8 | R _ B Q K B N R 
7 | P P P P _ P P P 
6 | _ _ N _ _ _ _ _ 
5 | _ _ _ _ P _ _ _ 
4 | _ _ _ _ _ _ _ _ 
3 | _ _ _ _ _ _ _ _ 
2 | P P P _ P P P P 
1 | R N B Q K B N R 
-------------------
  | A B C D E F G H 

Turn of: white
Succesful move
d1d5
8 | R _ B Q K B N R 
7 | P P P P _ P P P 
6 | _ _ N _ _ _ _ _ 
5 | _ _ _ Q P _ _ _ 
4 | _ _ _ _ _ _ _ _ 
3 | _ _ _ _ _ _ _ _ 
2 | P P P _ P P P P 
1 | R N B _ K B N R 
-------------------
  | A B C D E F G H 

Turn of: black
Succesful move
f8c5
8 | R _ B Q K _ N R 
7 | P P P P _ P P P 
6 | _ _ N _ _ _ _ _ 
5 | _ _ B Q P _ _ _ 
4 | _ _ _ _ _ _ _ _ 
3 | _ _ _ _ _ _ _ _ 
2 | P P P _ P P P P 
1 | R N B _ K B N R 
-------------------
  | A B C D E F G H 

Turn of: white
Succesful move
f2f3
8 | R _ B Q K _ N R 
7 | P P P P _ P P P 
6 | _ _ N _ _ _ _ _ 
5 | _ _ B Q P _ _ _ 
4 | _ _ _ _ _ _ _ _ 
3 | _ _ _ _ _ P _ _ 
2 | P P P _ P _ P P 
1 | R N B _ K B N R 
-------------------
  | A B C D E F G H 

Turn of: black
Succesful move
c5g1
8 | R _ B Q K _ N R 
7 | P P P P _ P P P 
6 | _ _ N _ _ _ _ _ 
5 | _ _ _ Q P _ _ _ 
4 | _ _ _ _ _ _ _ _ 
3 | _ _ _ _ _ P _ _ 
2 | P P P _ P _ P P 
1 | R N B _ K B B R 
-------------------
  | A B C D E F G H 

Turn of: white
Succesful move
e1d2
8 | R _ B Q K _ N R 
7 | P P P P _ P P P 
6 | _ _ N _ _ _ _ _ 
5 | _ _ _ Q P _ _ _ 
4 | _ _ _ _ _ _ _ _ 
3 | _ _ _ _ _ P _ _ 
2 | P P P K P _ P P 
1 | R N B _ _ B B R 
-------------------
  | A B C D E F G H 

Turn of: black
Succesful move
c6e5
8 | R _ B Q K _ N R 
7 | P P P P _ P P P 
6 | _ _ _ _ _ _ _ _ 
5 | _ _ _ Q N _ _ _ 
4 | _ _ _ _ _ _ _ _ 
3 | _ _ _ _ _ P _ _ 
2 | P P P K P _ P P 
1 | R N B _ _ B B R 
-------------------
  | A B C D E F G H 

Turn of: white
Succesful move
d5d7
8 | R _ B Q K _ N R 
7 | P P P Q _ P P P 
6 | _ _ _ _ _ _ _ _ 
5 | _ _ _ _ N _ _ _ 
4 | _ _ _ _ _ _ _ _ 
3 | _ _ _ _ _ P _ _ 
2 | P P P K P _ P P 
1 | R N B _ _ B B R 
-------------------
  | A B C D E F G H 

Turn of: black
Succesful move
d8d7
8 | R _ B _ K _ N R 
7 | P P P Q _ P P P 
6 | _ _ _ _ _ _ _ _ 
5 | _ _ _ _ N _ _ _ 
4 | _ _ _ _ _ _ _ _ 
3 | _ _ _ _ _ P _ _ 
2 | P P P K P _ P P 
1 | R N B _ _ B B R 
-------------------
  | A B C D E F G H 

Turn of: white
Succesful move
d2e1
8 | R _ B _ K _ N R 
7 | P P P Q _ P P P 
6 | _ _ _ _ _ _ _ _ 
5 | _ _ _ _ N _ _ _ 
4 | _ _ _ _ _ _ _ _ 
3 | _ _ _ _ _ P _ _ 
2 | P P P _ P _ P P 
1 | R N B _ K B B R 
-------------------
  | A B C D E F G H 

Turn of: black
Succesful move
g1h2
8 | R _ B _ K _ N R 
7 | P P P Q _ P P P 
6 | _ _ _ _ _ _ _ _ 
5 | _ _ _ _ N _ _ _ 
4 | _ _ _ _ _ _ _ _ 
3 | _ _ _ _ _ P _ _ 
2 | P P P _ P _ P B 
1 | R N B _ K B _ R 
-------------------
  | A B C D E F G H 

We are playing as White
Move history:
d2d4
e7e5
d4e5
b8c6
d1d5
f8c5
f2f3
c5g1
e1d2
c6e5
d5d7
d8d7
d2e1
g1h2
8 | R _ B _ K _ N R 
7 | P P P Q _ P P P 
6 | _ _ _ _ _ _ _ _ 
5 | _ _ _ _ N _ _ _ 
4 | _ _ _ _ _ _ _ _ 
3 | _ _ _ _ _ P _ _ 
2 | P P P _ P _ P B 
1 | R N B _ K B _ R 
-------------------
  | A B C D E F G H 

It is white's turn to play.
AI's move: b1c3
Move written: b1c3
[32;1m[Game] [0mPlayer's error code: 0
[32;1m[Game] [0mChecking move validity...
[32;1m[Board] [0mInitializing board...
[32;1m[Board] [0mLoading history file `championship/lizzie-iii-git-gambit/history.csv`...
[32;1m[Board] [0mLoaded 14 move(s).
[32;1m[Board] [0mLoading move file `championship/lizzie-iii-git-gambit/move.csv`...
[32;1m[Board] [0mWhite player is playing b1 to c3.
[32;1m[Board] [0m
[32;1m[Board] [0m    a b c d e f g h 
[32;1m[Board] [0m  -------------------
[32;1m[Board] [0m8 ||[30;1mr[0m| |[30;1mb[0m| |[30;1mK[0m| |[30;1mk[0m|[30;1mr[0m|| 8
[32;1m[Board] [0m  -------------------
[32;1m[Board] [0m7 ||[30;1mp[0m|[30;1mp[0m|[30;1mp[0m|[30;1mQ[0m| |[30;1mp[0m|[30;1mp[0m|[30;1mp[0m|| 7
[32;1m[Board] [0m  -------------------
[32;1m[Board] [0m6 ||[7;1m [0m| |[7;1m [0m| |[7;1m [0m| |[7;1m [0m| || 6
[32;1m[Board] [0m  -------------------
[32;1m[Board] [0m5 || |[7;1m [0m| |[7;1m [0m|[30;1mk[0m|[7;1m [0m| |[7;1m [0m|| 5
[32;1m[Board] [0m  -------------------
[32;1m[Board] [0m4 ||[7;1m [0m| |[7;1m [0m| |[7;1m [0m| |[7;1m [0m| || 4
[32;1m[Board] [0m  -------------------
[32;1m[Board] [0m3 || |[7;1m [0m|[0;1mk[0m|[7;1m [0m| |[0;1mp[0m| |[7;1m [0m|| 3
[32;1m[Board] [0m  -------------------
[32;1m[Board] [0m2 ||[0;1mp[0m|[0;1mp[0m|[0;1mp[0m| |[0;1mp[0m| |[0;1mp[0m|[30;1mb[0m|| 2
[32;1m[Board] [0m  -------------------
[32;1m[Board] [0m1 ||[0;1mr[0m|[7;1m [0m|[0;1mb[0m|[7;1m [0m|[0;1mK[0m|[0;1mb[0m| |[0;1mr[0m|| 1
[32;1m[Board] [0m  -------------------
[32;1m[Board] [0m    a b c d e f g h
[32;1m[Board] [0m
[32;1m[Referee] [0mThis is the turn of the Black player...

    a   b   c   d   e   f   g   h 
8 | r |   | b |   | k |   | n | r  | 8
7 | p | p | p | q |   | p | p | p  | 7
6 |   |   |   |   |   |   |   |    | 6
5 |   |   |   |   | n |   |   |    | 5
4 |   |   |   |   |   |   |   |    | 4
3 |   |   | N |   |   | P |   |    | 3
2 | P | P | P |   | P |   | P | b  | 2
1 | R |   | B |   | K | B |   | R  | 1
    a   b   c   d   e   f   g   h 

next move: e5f3

[32;1m[Game] [0mPlayer's error code: 0
[32;1m[Game] [0mChecking move validity...
[32;1m[Board] [0mInitializing board...
[32;1m[Board] [0mLoading history file `championship/lizzie-iii-git-gambit/history.csv`...
[32;1m[Board] [0mLoaded 15 move(s).
[32;1m[Board] [0mLoading move file `championship/lizzie-iii-git-gambit/move.csv`...
[32;1m[Board] [0mBlack player is playing e5 to f3.
[32;1m[Board] [0m[5;1mBlack Knight is taking White Pawn.[0m
[32;1m[Board] [0m
[32;1m[Board] [0m    a b c d e f g h 
[32;1m[Board] [0m  -------------------
[32;1m[Board] [0m8 ||[30;1mr[0m| |[30;1mb[0m| |[30;1mK[0m| |[30;1mk[0m|[30;1mr[0m|| 8
[32;1m[Board] [0m  -------------------
[32;1m[Board] [0m7 ||[30;1mp[0m|[30;1mp[0m|[30;1mp[0m|[30;1mQ[0m| |[30;1mp[0m|[30;1mp[0m|[30;1mp[0m|| 7
[32;1m[Board] [0m  -------------------
[32;1m[Board] [0m6 ||[7;1m [0m| |[7;1m [0m| |[7;1m [0m| |[7;1m [0m| || 6
[32;1m[Board] [0m  -------------------
[32;1m[Board] [0m5 || |[7;1m [0m| |[7;1m [0m| |[7;1m [0m| |[7;1m [0m|| 5
[32;1m[Board] [0m  -------------------
[32;1m[Board] [0m4 ||[7;1m [0m| |[7;1m [0m| |[7;1m [0m| |[7;1m [0m| || 4
[32;1m[Board] [0m  -------------------
[32;1m[Board] [0m3 || |[7;1m [0m|[0;1mk[0m|[7;1m [0m| |[30;1mk[0m| |[7;1m [0m|| 3
[32;1m[Board] [0m  -------------------
[32;1m[Board] [0m2 ||[0;1mp[0m|[0;1mp[0m|[0;1mp[0m| |[0;1mp[0m| |[0;1mp[0m|[30;1mb[0m|| 2
[32;1m[Board] [0m  -------------------
[32;1m[Board] [0m1 ||[0;1mr[0m|[7;1m [0m|[0;1mb[0m|[7;1m [0m|[0;1mK[0m|[0;1mb[0m| |[0;1mr[0m|| 1
[32;1m[Board] [0m  -------------------
[32;1m[Board] [0m    a b c d e f g h
[32;1m[Board] [0m
[32;1m[Referee] [0mThis is the turn of the White player...
[32;1m[Board] [0m[33;1m[WARNING][0m [5;1mWhite King in check![0m
[32;1m[Board] [0m[33;1m[WARNING][0m    Threatened by Black Knight (f3)
Input file: championship/lizzie-iii-git-gambit/history.csv
Output file: championship/lizzie-iii-git-gambit/move.csv
Turn of: white
Succesful move
d2d4
8 | R N B Q K B N R 
7 | P P P P P P P P 
6 | _ _ _ _ _ _ _ _ 
5 | _ _ _ _ _ _ _ _ 
4 | _ _ _ P _ _ _ _ 
3 | _ _ _ _ _ _ _ _ 
2 | P P P _ P P P P 
1 | R N B Q K B N R 
-------------------
  | A B C D E F G H 

Turn of: black
Succesful move
e7e5
8 | R N B Q K B N R 
7 | P P P P _ P P P 
6 | _ _ _ _ _ _ _ _ 
5 | _ _ _ _ P _ _ _ 
4 | _ _ _ P _ _ _ _ 
3 | _ _ _ _ _ _ _ _ 
2 | P P P _ P P P P 
1 | R N B Q K B N R 
-------------------
  | A B C D E F G H 

Turn of: white
Succesful move
d4e5
8 | R N B Q K B N R 
7 | P P P P _ P P P 
6 | _ _ _ _ _ _ _ _ 
5 | _ _ _ _ P _ _ _ 
4 | _ _ _ _ _ _ _ _ 
3 | _ _ _ _ _ _ _ _ 
2 | P P P _ P P P P 
1 | R N B Q K B N R 
-------------------
  | A B C D E F G H 

Turn of: black
Succesful move
b8c6
8 | R _ B Q K B N R 
7 | P P P P _ P P P 
6 | _ _ N _ _ _ _ _ 
5 | _ _ _ _ P _ _ _ 
4 | _ _ _ _ _ _ _ _ 
3 | _ _ _ _ _ _ _ _ 
2 | P P P _ P P P P 
1 | R N B Q K B N R 
-------------------
  | A B C D E F G H 

Turn of: white
Succesful move
d1d5
8 | R _ B Q K B N R 
7 | P P P P _ P P P 
6 | _ _ N _ _ _ _ _ 
5 | _ _ _ Q P _ _ _ 
4 | _ _ _ _ _ _ _ _ 
3 | _ _ _ _ _ _ _ _ 
2 | P P P _ P P P P 
1 | R N B _ K B N R 
-------------------
  | A B C D E F G H 

Turn of: black
Succesful move
f8c5
8 | R _ B Q K _ N R 
7 | P P P P _ P P P 
6 | _ _ N _ _ _ _ _ 
5 | _ _ B Q P _ _ _ 
4 | _ _ _ _ _ _ _ _ 
3 | _ _ _ _ _ _ _ _ 
2 | P P P _ P P P P 
1 | R N B _ K B N R 
-------------------
  | A B C D E F G H 

Turn of: white
Succesful move
f2f3
8 | R _ B Q K _ N R 
7 | P P P P _ P P P 
6 | _ _ N _ _ _ _ _ 
5 | _ _ B Q P _ _ _ 
4 | _ _ _ _ _ _ _ _ 
3 | _ _ _ _ _ P _ _ 
2 | P P P _ P _ P P 
1 | R N B _ K B N R 
-------------------
  | A B C D E F G H 

Turn of: black
Succesful move
c5g1
8 | R _ B Q K _ N R 
7 | P P P P _ P P P 
6 | _ _ N _ _ _ _ _ 
5 | _ _ _ Q P _ _ _ 
4 | _ _ _ _ _ _ _ _ 
3 | _ _ _ _ _ P _ _ 
2 | P P P _ P _ P P 
1 | R N B _ K B B R 
-------------------
  | A B C D E F G H 

Turn of: white
Succesful move
e1d2
8 | R _ B Q K _ N R 
7 | P P P P _ P P P 
6 | _ _ N _ _ _ _ _ 
5 | _ _ _ Q P _ _ _ 
4 | _ _ _ _ _ _ _ _ 
3 | _ _ _ _ _ P _ _ 
2 | P P P K P _ P P 
1 | R N B _ _ B B R 
-------------------
  | A B C D E F G H 

Turn of: black
Succesful move
c6e5
8 | R _ B Q K _ N R 
7 | P P P P _ P P P 
6 | _ _ _ _ _ _ _ _ 
5 | _ _ _ Q N _ _ _ 
4 | _ _ _ _ _ _ _ _ 
3 | _ _ _ _ _ P _ _ 
2 | P P P K P _ P P 
1 | R N B _ _ B B R 
-------------------
  | A B C D E F G H 

Turn of: white
Succesful move
d5d7
8 | R _ B Q K _ N R 
7 | P P P Q _ P P P 
6 | _ _ _ _ _ _ _ _ 
5 | _ _ _ _ N _ _ _ 
4 | _ _ _ _ _ _ _ _ 
3 | _ _ _ _ _ P _ _ 
2 | P P P K P _ P P 
1 | R N B _ _ B B R 
-------------------
  | A B C D E F G H 

Turn of: black
Succesful move
d8d7
8 | R _ B _ K _ N R 
7 | P P P Q _ P P P 
6 | _ _ _ _ _ _ _ _ 
5 | _ _ _ _ N _ _ _ 
4 | _ _ _ _ _ _ _ _ 
3 | _ _ _ _ _ P _ _ 
2 | P P P K P _ P P 
1 | R N B _ _ B B R 
-------------------
  | A B C D E F G H 

Turn of: white
Succesful move
d2e1
8 | R _ B _ K _ N R 
7 | P P P Q _ P P P 
6 | _ _ _ _ _ _ _ _ 
5 | _ _ _ _ N _ _ _ 
4 | _ _ _ _ _ _ _ _ 
3 | _ _ _ _ _ P _ _ 
2 | P P P _ P _ P P 
1 | R N B _ K B B R 
-------------------
  | A B C D E F G H 

Turn of: black
Succesful move
g1h2
8 | R _ B _ K _ N R 
7 | P P P Q _ P P P 
6 | _ _ _ _ _ _ _ _ 
5 | _ _ _ _ N _ _ _ 
4 | _ _ _ _ _ _ _ _ 
3 | _ _ _ _ _ P _ _ 
2 | P P P _ P _ P B 
1 | R N B _ K B _ R 
-------------------
  | A B C D E F G H 

Turn of: white
Succesful move
b1c3
8 | R _ B _ K _ N R 
7 | P P P Q _ P P P 
6 | _ _ _ _ _ _ _ _ 
5 | _ _ _ _ N _ _ _ 
4 | _ _ _ _ _ _ _ _ 
3 | _ _ N _ _ P _ _ 
2 | P P P _ P _ P B 
1 | R _ B _ K B _ R 
-------------------
  | A B C D E F G H 

Turn of: black
Succesful move
e5f3
8 | R _ B _ K _ N R 
7 | P P P Q _ P P P 
6 | _ _ _ _ _ _ _ _ 
5 | _ _ _ _ _ _ _ _ 
4 | _ _ _ _ _ _ _ _ 
3 | _ _ N _ _ N _ _ 
2 | P P P _ P _ P B 
1 | R _ B _ K B _ R 
-------------------
  | A B C D E F G H 

We are playing as White
Move history:
d2d4
e7e5
d4e5
b8c6
d1d5
f8c5
f2f3
c5g1
e1d2
c6e5
d5d7
d8d7
d2e1
g1h2
b1c3
e5f3
8 | R _ B _ K _ N R 
7 | P P P Q _ P P P 
6 | _ _ _ _ _ _ _ _ 
5 | _ _ _ _ _ _ _ _ 
4 | _ _ _ _ _ _ _ _ 
3 | _ _ N _ _ N _ _ 
2 | P P P _ P _ P B 
1 | R _ B _ K B _ R 
-------------------
  | A B C D E F G H 

It is white's turn to play.
AI's move: e1f2
Move written: e1f2
[32;1m[Game] [0mPlayer's error code: 0
[32;1m[Game] [0mChecking move validity...
[32;1m[Board] [0mInitializing board...
[32;1m[Board] [0mLoading history file `championship/lizzie-iii-git-gambit/history.csv`...
[32;1m[Board] [0mLoaded 16 move(s).
[32;1m[Board] [0mLoading move file `championship/lizzie-iii-git-gambit/move.csv`...
[32;1m[Board] [0mWhite player is playing e1 to f2.
[32;1m[Board] [0m
[32;1m[Board] [0m    a b c d e f g h 
[32;1m[Board] [0m  -------------------
[32;1m[Board] [0m8 ||[30;1mr[0m| |[30;1mb[0m| |[30;1mK[0m| |[30;1mk[0m|[30;1mr[0m|| 8
[32;1m[Board] [0m  -------------------
[32;1m[Board] [0m7 ||[30;1mp[0m|[30;1mp[0m|[30;1mp[0m|[30;1mQ[0m| |[30;1mp[0m|[30;1mp[0m|[30;1mp[0m|| 7
[32;1m[Board] [0m  -------------------
[32;1m[Board] [0m6 ||[7;1m [0m| |[7;1m [0m| |[7;1m [0m| |[7;1m [0m| || 6
[32;1m[Board] [0m  -------------------
[32;1m[Board] [0m5 || |[7;1m [0m| |[7;1m [0m| |[7;1m [0m| |[7;1m [0m|| 5
[32;1m[Board] [0m  -------------------
[32;1m[Board] [0m4 ||[7;1m [0m| |[7;1m [0m| |[7;1m [0m| |[7;1m [0m| || 4
[32;1m[Board] [0m  -------------------
[32;1m[Board] [0m3 || |[7;1m [0m|[0;1mk[0m|[7;1m [0m| |[30;1mk[0m| |[7;1m [0m|| 3
[32;1m[Board] [0m  -------------------
[32;1m[Board] [0m2 ||[0;1mp[0m|[0;1mp[0m|[0;1mp[0m| |[0;1mp[0m|[0;1mK[0m|[0;1mp[0m|[30;1mb[0m|| 2
[32;1m[Board] [0m  -------------------
[32;1m[Board] [0m1 ||[0;1mr[0m|[7;1m [0m|[0;1mb[0m|[7;1m [0m| |[0;1mb[0m| |[0;1mr[0m|| 1
[32;1m[Board] [0m  -------------------
[32;1m[Board] [0m    a b c d e f g h
[32;1m[Board] [0m
[32;1m[Referee] [0mThis is the turn of the Black player...

    a   b   c   d   e   f   g   h 
8 | r |   | b |   | k |   | n | r  | 8
7 | p | p | p | q |   | p | p | p  | 7
6 |   |   |   |   |   |   |   |    | 6
5 |   |   |   |   |   |   |   |    | 5
4 |   |   |   |   |   |   |   |    | 4
3 |   |   | N |   |   | n |   |    | 3
2 | P | P | P |   | P | K | P | b  | 2
1 | R |   | B |   |   | B |   | R  | 1
    a   b   c   d   e   f   g   h 

next move: f7f6

[32;1m[Game] [0mPlayer's error code: 0
[32;1m[Game] [0mChecking move validity...
[32;1m[Board] [0mInitializing board...
[32;1m[Board] [0mLoading history file `championship/lizzie-iii-git-gambit/history.csv`...
[32;1m[Board] [0mLoaded 17 move(s).
[32;1m[Board] [0mLoading move file `championship/lizzie-iii-git-gambit/move.csv`...
[32;1m[Board] [0mBlack player is playing f7 to f6.
[32;1m[Board] [0m
[32;1m[Board] [0m    a b c d e f g h 
[32;1m[Board] [0m  -------------------
[32;1m[Board] [0m8 ||[30;1mr[0m| |[30;1mb[0m| |[30;1mK[0m| |[30;1mk[0m|[30;1mr[0m|| 8
[32;1m[Board] [0m  -------------------
[32;1m[Board] [0m7 ||[30;1mp[0m|[30;1mp[0m|[30;1mp[0m|[30;1mQ[0m| |[7;1m [0m|[30;1mp[0m|[30;1mp[0m|| 7
[32;1m[Board] [0m  -------------------
[32;1m[Board] [0m6 ||[7;1m [0m| |[7;1m [0m| |[7;1m [0m|[30;1mp[0m|[7;1m [0m| || 6
[32;1m[Board] [0m  -------------------
[32;1m[Board] [0m5 || |[7;1m [0m| |[7;1m [0m| |[7;1m [0m| |[7;1m [0m|| 5
[32;1m[Board] [0m  -------------------
[32;1m[Board] [0m4 ||[7;1m [0m| |[7;1m [0m| |[7;1m [0m| |[7;1m [0m| || 4
[32;1m[Board] [0m  -------------------
[32;1m[Board] [0m3 || |[7;1m [0m|[0;1mk[0m|[7;1m [0m| |[30;1mk[0m| |[7;1m [0m|| 3
[32;1m[Board] [0m  -------------------
[32;1m[Board] [0m2 ||[0;1mp[0m|[0;1mp[0m|[0;1mp[0m| |[0;1mp[0m|[0;1mK[0m|[0;1mp[0m|[30;1mb[0m|| 2
[32;1m[Board] [0m  -------------------
[32;1m[Board] [0m1 ||[0;1mr[0m|[7;1m [0m|[0;1mb[0m|[7;1m [0m| |[0;1mb[0m| |[0;1mr[0m|| 1
[32;1m[Board] [0m  -------------------
[32;1m[Board] [0m    a b c d e f g h
[32;1m[Board] [0m
[32;1m[Referee] [0mThis is the turn of the White player...
Input file: championship/lizzie-iii-git-gambit/history.csv
Output file: championship/lizzie-iii-git-gambit/move.csv
Turn of: white
Succesful move
d2d4
8 | R N B Q K B N R 
7 | P P P P P P P P 
6 | _ _ _ _ _ _ _ _ 
5 | _ _ _ _ _ _ _ _ 
4 | _ _ _ P _ _ _ _ 
3 | _ _ _ _ _ _ _ _ 
2 | P P P _ P P P P 
1 | R N B Q K B N R 
-------------------
  | A B C D E F G H 

Turn of: black
Succesful move
e7e5
8 | R N B Q K B N R 
7 | P P P P _ P P P 
6 | _ _ _ _ _ _ _ _ 
5 | _ _ _ _ P _ _ _ 
4 | _ _ _ P _ _ _ _ 
3 | _ _ _ _ _ _ _ _ 
2 | P P P _ P P P P 
1 | R N B Q K B N R 
-------------------
  | A B C D E F G H 

Turn of: white
Succesful move
d4e5
8 | R N B Q K B N R 
7 | P P P P _ P P P 
6 | _ _ _ _ _ _ _ _ 
5 | _ _ _ _ P _ _ _ 
4 | _ _ _ _ _ _ _ _ 
3 | _ _ _ _ _ _ _ _ 
2 | P P P _ P P P P 
1 | R N B Q K B N R 
-------------------
  | A B C D E F G H 

Turn of: black
Succesful move
b8c6
8 | R _ B Q K B N R 
7 | P P P P _ P P P 
6 | _ _ N _ _ _ _ _ 
5 | _ _ _ _ P _ _ _ 
4 | _ _ _ _ _ _ _ _ 
3 | _ _ _ _ _ _ _ _ 
2 | P P P _ P P P P 
1 | R N B Q K B N R 
-------------------
  | A B C D E F G H 

Turn of: white
Succesful move
d1d5
8 | R _ B Q K B N R 
7 | P P P P _ P P P 
6 | _ _ N _ _ _ _ _ 
5 | _ _ _ Q P _ _ _ 
4 | _ _ _ _ _ _ _ _ 
3 | _ _ _ _ _ _ _ _ 
2 | P P P _ P P P P 
1 | R N B _ K B N R 
-------------------
  | A B C D E F G H 

Turn of: black
Succesful move
f8c5
8 | R _ B Q K _ N R 
7 | P P P P _ P P P 
6 | _ _ N _ _ _ _ _ 
5 | _ _ B Q P _ _ _ 
4 | _ _ _ _ _ _ _ _ 
3 | _ _ _ _ _ _ _ _ 
2 | P P P _ P P P P 
1 | R N B _ K B N R 
-------------------
  | A B C D E F G H 

Turn of: white
Succesful move
f2f3
8 | R _ B Q K _ N R 
7 | P P P P _ P P P 
6 | _ _ N _ _ _ _ _ 
5 | _ _ B Q P _ _ _ 
4 | _ _ _ _ _ _ _ _ 
3 | _ _ _ _ _ P _ _ 
2 | P P P _ P _ P P 
1 | R N B _ K B N R 
-------------------
  | A B C D E F G H 

Turn of: black
Succesful move
c5g1
8 | R _ B Q K _ N R 
7 | P P P P _ P P P 
6 | _ _ N _ _ _ _ _ 
5 | _ _ _ Q P _ _ _ 
4 | _ _ _ _ _ _ _ _ 
3 | _ _ _ _ _ P _ _ 
2 | P P P _ P _ P P 
1 | R N B _ K B B R 
-------------------
  | A B C D E F G H 

Turn of: white
Succesful move
e1d2
8 | R _ B Q K _ N R 
7 | P P P P _ P P P 
6 | _ _ N _ _ _ _ _ 
5 | _ _ _ Q P _ _ _ 
4 | _ _ _ _ _ _ _ _ 
3 | _ _ _ _ _ P _ _ 
2 | P P P K P _ P P 
1 | R N B _ _ B B R 
-------------------
  | A B C D E F G H 

Turn of: black
Succesful move
c6e5
8 | R _ B Q K _ N R 
7 | P P P P _ P P P 
6 | _ _ _ _ _ _ _ _ 
5 | _ _ _ Q N _ _ _ 
4 | _ _ _ _ _ _ _ _ 
3 | _ _ _ _ _ P _ _ 
2 | P P P K P _ P P 
1 | R N B _ _ B B R 
-------------------
  | A B C D E F G H 

Turn of: white
Succesful move
d5d7
8 | R _ B Q K _ N R 
7 | P P P Q _ P P P 
6 | _ _ _ _ _ _ _ _ 
5 | _ _ _ _ N _ _ _ 
4 | _ _ _ _ _ _ _ _ 
3 | _ _ _ _ _ P _ _ 
2 | P P P K P _ P P 
1 | R N B _ _ B B R 
-------------------
  | A B C D E F G H 

Turn of: black
Succesful move
d8d7
8 | R _ B _ K _ N R 
7 | P P P Q _ P P P 
6 | _ _ _ _ _ _ _ _ 
5 | _ _ _ _ N _ _ _ 
4 | _ _ _ _ _ _ _ _ 
3 | _ _ _ _ _ P _ _ 
2 | P P P K P _ P P 
1 | R N B _ _ B B R 
-------------------
  | A B C D E F G H 

Turn of: white
Succesful move
d2e1
8 | R _ B _ K _ N R 
7 | P P P Q _ P P P 
6 | _ _ _ _ _ _ _ _ 
5 | _ _ _ _ N _ _ _ 
4 | _ _ _ _ _ _ _ _ 
3 | _ _ _ _ _ P _ _ 
2 | P P P _ P _ P P 
1 | R N B _ K B B R 
-------------------
  | A B C D E F G H 

Turn of: black
Succesful move
g1h2
8 | R _ B _ K _ N R 
7 | P P P Q _ P P P 
6 | _ _ _ _ _ _ _ _ 
5 | _ _ _ _ N _ _ _ 
4 | _ _ _ _ _ _ _ _ 
3 | _ _ _ _ _ P _ _ 
2 | P P P _ P _ P B 
1 | R N B _ K B _ R 
-------------------
  | A B C D E F G H 

Turn of: white
Succesful move
b1c3
8 | R _ B _ K _ N R 
7 | P P P Q _ P P P 
6 | _ _ _ _ _ _ _ _ 
5 | _ _ _ _ N _ _ _ 
4 | _ _ _ _ _ _ _ _ 
3 | _ _ N _ _ P _ _ 
2 | P P P _ P _ P B 
1 | R _ B _ K B _ R 
-------------------
  | A B C D E F G H 

Turn of: black
Succesful move
e5f3
8 | R _ B _ K _ N R 
7 | P P P Q _ P P P 
6 | _ _ _ _ _ _ _ _ 
5 | _ _ _ _ _ _ _ _ 
4 | _ _ _ _ _ _ _ _ 
3 | _ _ N _ _ N _ _ 
2 | P P P _ P _ P B 
1 | R _ B _ K B _ R 
-------------------
  | A B C D E F G H 

Turn of: white
Succesful move
e1f2
8 | R _ B _ K _ N R 
7 | P P P Q _ P P P 
6 | _ _ _ _ _ _ _ _ 
5 | _ _ _ _ _ _ _ _ 
4 | _ _ _ _ _ _ _ _ 
3 | _ _ N _ _ N _ _ 
2 | P P P _ P K P B 
1 | R _ B _ _ B _ R 
-------------------
  | A B C D E F G H 

Turn of: black
Succesful move
f7f6
8 | R _ B _ K _ N R 
7 | P P P Q _ _ P P 
6 | _ _ _ _ _ P _ _ 
5 | _ _ _ _ _ _ _ _ 
4 | _ _ _ _ _ _ _ _ 
3 | _ _ N _ _ N _ _ 
2 | P P P _ P K P B 
1 | R _ B _ _ B _ R 
-------------------
  | A B C D E F G H 

We are playing as White
Move history:
d2d4
e7e5
d4e5
b8c6
d1d5
f8c5
f2f3
c5g1
e1d2
c6e5
d5d7
d8d7
d2e1
g1h2
b1c3
e5f3
e1f2
f7f6
8 | R _ B _ K _ N R 
7 | P P P Q _ _ P P 
6 | _ _ _ _ _ P _ _ 
5 | _ _ _ _ _ _ _ _ 
4 | _ _ _ _ _ _ _ _ 
3 | _ _ N _ _ N _ _ 
2 | P P P _ P K P B 
1 | R _ B _ _ B _ R 
-------------------
  | A B C D E F G H 

It is white's turn to play.
AI's move: c3b5
Move written: c3b5
[32;1m[Game] [0mPlayer's error code: 0
[32;1m[Game] [0mChecking move validity...
[32;1m[Board] [0mInitializing board...
[32;1m[Board] [0mLoading history file `championship/lizzie-iii-git-gambit/history.csv`...
[32;1m[Board] [0mLoaded 18 move(s).
[32;1m[Board] [0mLoading move file `championship/lizzie-iii-git-gambit/move.csv`...
[32;1m[Board] [0mWhite player is playing c3 to b5.
[32;1m[Board] [0m
[32;1m[Board] [0m    a b c d e f g h 
[32;1m[Board] [0m  -------------------
[32;1m[Board] [0m8 ||[30;1mr[0m| |[30;1mb[0m| |[30;1mK[0m| |[30;1mk[0m|[30;1mr[0m|| 8
[32;1m[Board] [0m  -------------------
[32;1m[Board] [0m7 ||[30;1mp[0m|[30;1mp[0m|[30;1mp[0m|[30;1mQ[0m| |[7;1m [0m|[30;1mp[0m|[30;1mp[0m|| 7
[32;1m[Board] [0m  -------------------
[32;1m[Board] [0m6 ||[7;1m [0m| |[7;1m [0m| |[7;1m [0m|[30;1mp[0m|[7;1m [0m| || 6
[32;1m[Board] [0m  -------------------
[32;1m[Board] [0m5 || |[0;1mk[0m| |[7;1m [0m| |[7;1m [0m| |[7;1m [0m|| 5
[32;1m[Board] [0m  -------------------
[32;1m[Board] [0m4 ||[7;1m [0m| |[7;1m [0m| |[7;1m [0m| |[7;1m [0m| || 4
[32;1m[Board] [0m  -------------------
[32;1m[Board] [0m3 || |[7;1m [0m| |[7;1m [0m| |[30;1mk[0m| |[7;1m [0m|| 3
[32;1m[Board] [0m  -------------------
[32;1m[Board] [0m2 ||[0;1mp[0m|[0;1mp[0m|[0;1mp[0m| |[0;1mp[0m|[0;1mK[0m|[0;1mp[0m|[30;1mb[0m|| 2
[32;1m[Board] [0m  -------------------
[32;1m[Board] [0m1 ||[0;1mr[0m|[7;1m [0m|[0;1mb[0m|[7;1m [0m| |[0;1mb[0m| |[0;1mr[0m|| 1
[32;1m[Board] [0m  -------------------
[32;1m[Board] [0m    a b c d e f g h
[32;1m[Board] [0m
[32;1m[Referee] [0mThis is the turn of the Black player...

    a   b   c   d   e   f   g   h 
8 | r |   | b |   | k |   | n | r  | 8
7 | p | p | p | q |   |   | p | p  | 7
6 |   |   |   |   |   | p |   |    | 6
5 |   | N |   |   |   |   |   |    | 5
4 |   |   |   |   |   |   |   |    | 4
3 |   |   |   |   |   | n |   |    | 3
2 | P | P | P |   | P | K | P | b  | 2
1 | R |   | B |   |   | B |   | R  | 1
    a   b   c   d   e   f   g   h 

next move: d7b5

[32;1m[Game] [0mPlayer's error code: 0
[32;1m[Game] [0mChecking move validity...
[32;1m[Board] [0mInitializing board...
[32;1m[Board] [0mLoading history file `championship/lizzie-iii-git-gambit/history.csv`...
[32;1m[Board] [0mLoaded 19 move(s).
[32;1m[Board] [0mLoading move file `championship/lizzie-iii-git-gambit/move.csv`...
[32;1m[Board] [0mBlack player is playing d7 to b5.
[32;1m[Board] [0m[5;1mBlack Queen is taking White Knight.[0m
[32;1m[Board] [0m
[32;1m[Board] [0m    a b c d e f g h 
[32;1m[Board] [0m  -------------------
[32;1m[Board] [0m8 ||[30;1mr[0m| |[30;1mb[0m| |[30;1mK[0m| |[30;1mk[0m|[30;1mr[0m|| 8
[32;1m[Board] [0m  -------------------
[32;1m[Board] [0m7 ||[30;1mp[0m|[30;1mp[0m|[30;1mp[0m|[7;1m [0m| |[7;1m [0m|[30;1mp[0m|[30;1mp[0m|| 7
[32;1m[Board] [0m  -------------------
[32;1m[Board] [0m6 ||[7;1m [0m| |[7;1m [0m| |[7;1m [0m|[30;1mp[0m|[7;1m [0m| || 6
[32;1m[Board] [0m  -------------------
[32;1m[Board] [0m5 || |[30;1mQ[0m| |[7;1m [0m| |[7;1m [0m| |[7;1m [0m|| 5
[32;1m[Board] [0m  -------------------
[32;1m[Board] [0m4 ||[7;1m [0m| |[7;1m [0m| |[7;1m [0m| |[7;1m [0m| || 4
[32;1m[Board] [0m  -------------------
[32;1m[Board] [0m3 || |[7;1m [0m| |[7;1m [0m| |[30;1mk[0m| |[7;1m [0m|| 3
[32;1m[Board] [0m  -------------------
[32;1m[Board] [0m2 ||[0;1mp[0m|[0;1mp[0m|[0;1mp[0m| |[0;1mp[0m|[0;1mK[0m|[0;1mp[0m|[30;1mb[0m|| 2
[32;1m[Board] [0m  -------------------
[32;1m[Board] [0m1 ||[0;1mr[0m|[7;1m [0m|[0;1mb[0m|[7;1m [0m| |[0;1mb[0m| |[0;1mr[0m|| 1
[32;1m[Board] [0m  -------------------
[32;1m[Board] [0m    a b c d e f g h
[32;1m[Board] [0m
[32;1m[Referee] [0mThis is the turn of the White player...
Input file: championship/lizzie-iii-git-gambit/history.csv
Output file: championship/lizzie-iii-git-gambit/move.csv
Turn of: white
Succesful move
d2d4
8 | R N B Q K B N R 
7 | P P P P P P P P 
6 | _ _ _ _ _ _ _ _ 
5 | _ _ _ _ _ _ _ _ 
4 | _ _ _ P _ _ _ _ 
3 | _ _ _ _ _ _ _ _ 
2 | P P P _ P P P P 
1 | R N B Q K B N R 
-------------------
  | A B C D E F G H 

Turn of: black
Succesful move
e7e5
8 | R N B Q K B N R 
7 | P P P P _ P P P 
6 | _ _ _ _ _ _ _ _ 
5 | _ _ _ _ P _ _ _ 
4 | _ _ _ P _ _ _ _ 
3 | _ _ _ _ _ _ _ _ 
2 | P P P _ P P P P 
1 | R N B Q K B N R 
-------------------
  | A B C D E F G H 

Turn of: white
Succesful move
d4e5
8 | R N B Q K B N R 
7 | P P P P _ P P P 
6 | _ _ _ _ _ _ _ _ 
5 | _ _ _ _ P _ _ _ 
4 | _ _ _ _ _ _ _ _ 
3 | _ _ _ _ _ _ _ _ 
2 | P P P _ P P P P 
1 | R N B Q K B N R 
-------------------
  | A B C D E F G H 

Turn of: black
Succesful move
b8c6
8 | R _ B Q K B N R 
7 | P P P P _ P P P 
6 | _ _ N _ _ _ _ _ 
5 | _ _ _ _ P _ _ _ 
4 | _ _ _ _ _ _ _ _ 
3 | _ _ _ _ _ _ _ _ 
2 | P P P _ P P P P 
1 | R N B Q K B N R 
-------------------
  | A B C D E F G H 

Turn of: white
Succesful move
d1d5
8 | R _ B Q K B N R 
7 | P P P P _ P P P 
6 | _ _ N _ _ _ _ _ 
5 | _ _ _ Q P _ _ _ 
4 | _ _ _ _ _ _ _ _ 
3 | _ _ _ _ _ _ _ _ 
2 | P P P _ P P P P 
1 | R N B _ K B N R 
-------------------
  | A B C D E F G H 

Turn of: black
Succesful move
f8c5
8 | R _ B Q K _ N R 
7 | P P P P _ P P P 
6 | _ _ N _ _ _ _ _ 
5 | _ _ B Q P _ _ _ 
4 | _ _ _ _ _ _ _ _ 
3 | _ _ _ _ _ _ _ _ 
2 | P P P _ P P P P 
1 | R N B _ K B N R 
-------------------
  | A B C D E F G H 

Turn of: white
Succesful move
f2f3
8 | R _ B Q K _ N R 
7 | P P P P _ P P P 
6 | _ _ N _ _ _ _ _ 
5 | _ _ B Q P _ _ _ 
4 | _ _ _ _ _ _ _ _ 
3 | _ _ _ _ _ P _ _ 
2 | P P P _ P _ P P 
1 | R N B _ K B N R 
-------------------
  | A B C D E F G H 

Turn of: black
Succesful move
c5g1
8 | R _ B Q K _ N R 
7 | P P P P _ P P P 
6 | _ _ N _ _ _ _ _ 
5 | _ _ _ Q P _ _ _ 
4 | _ _ _ _ _ _ _ _ 
3 | _ _ _ _ _ P _ _ 
2 | P P P _ P _ P P 
1 | R N B _ K B B R 
-------------------
  | A B C D E F G H 

Turn of: white
Succesful move
e1d2
8 | R _ B Q K _ N R 
7 | P P P P _ P P P 
6 | _ _ N _ _ _ _ _ 
5 | _ _ _ Q P _ _ _ 
4 | _ _ _ _ _ _ _ _ 
3 | _ _ _ _ _ P _ _ 
2 | P P P K P _ P P 
1 | R N B _ _ B B R 
-------------------
  | A B C D E F G H 

Turn of: black
Succesful move
c6e5
8 | R _ B Q K _ N R 
7 | P P P P _ P P P 
6 | _ _ _ _ _ _ _ _ 
5 | _ _ _ Q N _ _ _ 
4 | _ _ _ _ _ _ _ _ 
3 | _ _ _ _ _ P _ _ 
2 | P P P K P _ P P 
1 | R N B _ _ B B R 
-------------------
  | A B C D E F G H 

Turn of: white
Succesful move
d5d7
8 | R _ B Q K _ N R 
7 | P P P Q _ P P P 
6 | _ _ _ _ _ _ _ _ 
5 | _ _ _ _ N _ _ _ 
4 | _ _ _ _ _ _ _ _ 
3 | _ _ _ _ _ P _ _ 
2 | P P P K P _ P P 
1 | R N B _ _ B B R 
-------------------
  | A B C D E F G H 

Turn of: black
Succesful move
d8d7
8 | R _ B _ K _ N R 
7 | P P P Q _ P P P 
6 | _ _ _ _ _ _ _ _ 
5 | _ _ _ _ N _ _ _ 
4 | _ _ _ _ _ _ _ _ 
3 | _ _ _ _ _ P _ _ 
2 | P P P K P _ P P 
1 | R N B _ _ B B R 
-------------------
  | A B C D E F G H 

Turn of: white
Succesful move
d2e1
8 | R _ B _ K _ N R 
7 | P P P Q _ P P P 
6 | _ _ _ _ _ _ _ _ 
5 | _ _ _ _ N _ _ _ 
4 | _ _ _ _ _ _ _ _ 
3 | _ _ _ _ _ P _ _ 
2 | P P P _ P _ P P 
1 | R N B _ K B B R 
-------------------
  | A B C D E F G H 

Turn of: black
Succesful move
g1h2
8 | R _ B _ K _ N R 
7 | P P P Q _ P P P 
6 | _ _ _ _ _ _ _ _ 
5 | _ _ _ _ N _ _ _ 
4 | _ _ _ _ _ _ _ _ 
3 | _ _ _ _ _ P _ _ 
2 | P P P _ P _ P B 
1 | R N B _ K B _ R 
-------------------
  | A B C D E F G H 

Turn of: white
Succesful move
b1c3
8 | R _ B _ K _ N R 
7 | P P P Q _ P P P 
6 | _ _ _ _ _ _ _ _ 
5 | _ _ _ _ N _ _ _ 
4 | _ _ _ _ _ _ _ _ 
3 | _ _ N _ _ P _ _ 
2 | P P P _ P _ P B 
1 | R _ B _ K B _ R 
-------------------
  | A B C D E F G H 

Turn of: black
Succesful move
e5f3
8 | R _ B _ K _ N R 
7 | P P P Q _ P P P 
6 | _ _ _ _ _ _ _ _ 
5 | _ _ _ _ _ _ _ _ 
4 | _ _ _ _ _ _ _ _ 
3 | _ _ N _ _ N _ _ 
2 | P P P _ P _ P B 
1 | R _ B _ K B _ R 
-------------------
  | A B C D E F G H 

Turn of: white
Succesful move
e1f2
8 | R _ B _ K _ N R 
7 | P P P Q _ P P P 
6 | _ _ _ _ _ _ _ _ 
5 | _ _ _ _ _ _ _ _ 
4 | _ _ _ _ _ _ _ _ 
3 | _ _ N _ _ N _ _ 
2 | P P P _ P K P B 
1 | R _ B _ _ B _ R 
-------------------
  | A B C D E F G H 

Turn of: black
Succesful move
f7f6
8 | R _ B _ K _ N R 
7 | P P P Q _ _ P P 
6 | _ _ _ _ _ P _ _ 
5 | _ _ _ _ _ _ _ _ 
4 | _ _ _ _ _ _ _ _ 
3 | _ _ N _ _ N _ _ 
2 | P P P _ P K P B 
1 | R _ B _ _ B _ R 
-------------------
  | A B C D E F G H 

Turn of: white
Succesful move
c3b5
8 | R _ B _ K _ N R 
7 | P P P Q _ _ P P 
6 | _ _ _ _ _ P _ _ 
5 | _ N _ _ _ _ _ _ 
4 | _ _ _ _ _ _ _ _ 
3 | _ _ _ _ _ N _ _ 
2 | P P P _ P K P B 
1 | R _ B _ _ B _ R 
-------------------
  | A B C D E F G H 

Turn of: black
Succesful move
d7b5
8 | R _ B _ K _ N R 
7 | P P P _ _ _ P P 
6 | _ _ _ _ _ P _ _ 
5 | _ Q _ _ _ _ _ _ 
4 | _ _ _ _ _ _ _ _ 
3 | _ _ _ _ _ N _ _ 
2 | P P P _ P K P B 
1 | R _ B _ _ B _ R 
-------------------
  | A B C D E F G H 

We are playing as White
Move history:
d2d4
e7e5
d4e5
b8c6
d1d5
f8c5
f2f3
c5g1
e1d2
c6e5
d5d7
d8d7
d2e1
g1h2
b1c3
e5f3
e1f2
f7f6
c3b5
d7b5
8 | R _ B _ K _ N R 
7 | P P P _ _ _ P P 
6 | _ _ _ _ _ P _ _ 
5 | _ Q _ _ _ _ _ _ 
4 | _ _ _ _ _ _ _ _ 
3 | _ _ _ _ _ N _ _ 
2 | P P P _ P K P B 
1 | R _ B _ _ B _ R 
-------------------
  | A B C D E F G H 

It is white's turn to play.
AI's move: a1b1
Move written: a1b1
[32;1m[Game] [0mPlayer's error code: 0
[32;1m[Game] [0mChecking move validity...
[32;1m[Board] [0mInitializing board...
[32;1m[Board] [0mLoading history file `championship/lizzie-iii-git-gambit/history.csv`...
[32;1m[Board] [0mLoaded 20 move(s).
[32;1m[Board] [0mLoading move file `championship/lizzie-iii-git-gambit/move.csv`...
[32;1m[Board] [0mWhite player is playing a1 to b1.
[32;1m[Board] [0m
[32;1m[Board] [0m    a b c d e f g h 
[32;1m[Board] [0m  -------------------
[32;1m[Board] [0m8 ||[30;1mr[0m| |[30;1mb[0m| |[30;1mK[0m| |[30;1mk[0m|[30;1mr[0m|| 8
[32;1m[Board] [0m  -------------------
[32;1m[Board] [0m7 ||[30;1mp[0m|[30;1mp[0m|[30;1mp[0m|[7;1m [0m| |[7;1m [0m|[30;1mp[0m|[30;1mp[0m|| 7
[32;1m[Board] [0m  -------------------
[32;1m[Board] [0m6 ||[7;1m [0m| |[7;1m [0m| |[7;1m [0m|[30;1mp[0m|[7;1m [0m| || 6
[32;1m[Board] [0m  -------------------
[32;1m[Board] [0m5 || |[30;1mQ[0m| |[7;1m [0m| |[7;1m [0m| |[7;1m [0m|| 5
[32;1m[Board] [0m  -------------------
[32;1m[Board] [0m4 ||[7;1m [0m| |[7;1m [0m| |[7;1m [0m| |[7;1m [0m| || 4
[32;1m[Board] [0m  -------------------
[32;1m[Board] [0m3 || |[7;1m [0m| |[7;1m [0m| |[30;1mk[0m| |[7;1m [0m|| 3
[32;1m[Board] [0m  -------------------
[32;1m[Board] [0m2 ||[0;1mp[0m|[0;1mp[0m|[0;1mp[0m| |[0;1mp[0m|[0;1mK[0m|[0;1mp[0m|[30;1mb[0m|| 2
[32;1m[Board] [0m  -------------------
[32;1m[Board] [0m1 || |[0;1mr[0m|[0;1mb[0m|[7;1m [0m| |[0;1mb[0m| |[0;1mr[0m|| 1
[32;1m[Board] [0m  -------------------
[32;1m[Board] [0m    a b c d e f g h
[32;1m[Board] [0m
[32;1m[Referee] [0mThis is the turn of the Black player...

    a   b   c   d   e   f   g   h 
8 | r |   | b |   | k |   | n | r  | 8
7 | p | p | p |   |   |   | p | p  | 7
6 |   |   |   |   |   | p |   |    | 6
5 |   | q |   |   |   |   |   |    | 5
4 |   |   |   |   |   |   |   |    | 4
3 |   |   |   |   |   | n |   |    | 3
2 | P | P | P |   | P | K | P | b  | 2
1 |   | R | B |   |   | B |   | R  | 1
    a   b   c   d   e   f   g   h 

next move: b5b2

[32;1m[Game] [0mPlayer's error code: 0
[32;1m[Game] [0mChecking move validity...
[32;1m[Board] [0mInitializing board...
[32;1m[Board] [0mLoading history file `championship/lizzie-iii-git-gambit/history.csv`...
[32;1m[Board] [0mLoaded 21 move(s).
[32;1m[Board] [0mLoading move file `championship/lizzie-iii-git-gambit/move.csv`...
[32;1m[Board] [0mBlack player is playing b5 to b2.
[32;1m[Board] [0m[5;1mBlack Queen is taking White Pawn.[0m
[32;1m[Board] [0m
[32;1m[Board] [0m    a b c d e f g h 
[32;1m[Board] [0m  -------------------
[32;1m[Board] [0m8 ||[30;1mr[0m| |[30;1mb[0m| |[30;1mK[0m| |[30;1mk[0m|[30;1mr[0m|| 8
[32;1m[Board] [0m  -------------------
[32;1m[Board] [0m7 ||[30;1mp[0m|[30;1mp[0m|[30;1mp[0m|[7;1m [0m| |[7;1m [0m|[30;1mp[0m|[30;1mp[0m|| 7
[32;1m[Board] [0m  -------------------
[32;1m[Board] [0m6 ||[7;1m [0m| |[7;1m [0m| |[7;1m [0m|[30;1mp[0m|[7;1m [0m| || 6
[32;1m[Board] [0m  -------------------
[32;1m[Board] [0m5 || |[7;1m [0m| |[7;1m [0m| |[7;1m [0m| |[7;1m [0m|| 5
[32;1m[Board] [0m  -------------------
[32;1m[Board] [0m4 ||[7;1m [0m| |[7;1m [0m| |[7;1m [0m| |[7;1m [0m| || 4
[32;1m[Board] [0m  -------------------
[32;1m[Board] [0m3 || |[7;1m [0m| |[7;1m [0m| |[30;1mk[0m| |[7;1m [0m|| 3
[32;1m[Board] [0m  -------------------
[32;1m[Board] [0m2 ||[0;1mp[0m|[30;1mQ[0m|[0;1mp[0m| |[0;1mp[0m|[0;1mK[0m|[0;1mp[0m|[30;1mb[0m|| 2
[32;1m[Board] [0m  -------------------
[32;1m[Board] [0m1 || |[0;1mr[0m|[0;1mb[0m|[7;1m [0m| |[0;1mb[0m| |[0;1mr[0m|| 1
[32;1m[Board] [0m  -------------------
[32;1m[Board] [0m    a b c d e f g h
[32;1m[Board] [0m
[32;1m[Referee] [0mThis is the turn of the White player...
Input file: championship/lizzie-iii-git-gambit/history.csv
Output file: championship/lizzie-iii-git-gambit/move.csv
Turn of: white
Succesful move
d2d4
8 | R N B Q K B N R 
7 | P P P P P P P P 
6 | _ _ _ _ _ _ _ _ 
5 | _ _ _ _ _ _ _ _ 
4 | _ _ _ P _ _ _ _ 
3 | _ _ _ _ _ _ _ _ 
2 | P P P _ P P P P 
1 | R N B Q K B N R 
-------------------
  | A B C D E F G H 

Turn of: black
Succesful move
e7e5
8 | R N B Q K B N R 
7 | P P P P _ P P P 
6 | _ _ _ _ _ _ _ _ 
5 | _ _ _ _ P _ _ _ 
4 | _ _ _ P _ _ _ _ 
3 | _ _ _ _ _ _ _ _ 
2 | P P P _ P P P P 
1 | R N B Q K B N R 
-------------------
  | A B C D E F G H 

Turn of: white
Succesful move
d4e5
8 | R N B Q K B N R 
7 | P P P P _ P P P 
6 | _ _ _ _ _ _ _ _ 
5 | _ _ _ _ P _ _ _ 
4 | _ _ _ _ _ _ _ _ 
3 | _ _ _ _ _ _ _ _ 
2 | P P P _ P P P P 
1 | R N B Q K B N R 
-------------------
  | A B C D E F G H 

Turn of: black
Succesful move
b8c6
8 | R _ B Q K B N R 
7 | P P P P _ P P P 
6 | _ _ N _ _ _ _ _ 
5 | _ _ _ _ P _ _ _ 
4 | _ _ _ _ _ _ _ _ 
3 | _ _ _ _ _ _ _ _ 
2 | P P P _ P P P P 
1 | R N B Q K B N R 
-------------------
  | A B C D E F G H 

Turn of: white
Succesful move
d1d5
8 | R _ B Q K B N R 
7 | P P P P _ P P P 
6 | _ _ N _ _ _ _ _ 
5 | _ _ _ Q P _ _ _ 
4 | _ _ _ _ _ _ _ _ 
3 | _ _ _ _ _ _ _ _ 
2 | P P P _ P P P P 
1 | R N B _ K B N R 
-------------------
  | A B C D E F G H 

Turn of: black
Succesful move
f8c5
8 | R _ B Q K _ N R 
7 | P P P P _ P P P 
6 | _ _ N _ _ _ _ _ 
5 | _ _ B Q P _ _ _ 
4 | _ _ _ _ _ _ _ _ 
3 | _ _ _ _ _ _ _ _ 
2 | P P P _ P P P P 
1 | R N B _ K B N R 
-------------------
  | A B C D E F G H 

Turn of: white
Succesful move
f2f3
8 | R _ B Q K _ N R 
7 | P P P P _ P P P 
6 | _ _ N _ _ _ _ _ 
5 | _ _ B Q P _ _ _ 
4 | _ _ _ _ _ _ _ _ 
3 | _ _ _ _ _ P _ _ 
2 | P P P _ P _ P P 
1 | R N B _ K B N R 
-------------------
  | A B C D E F G H 

Turn of: black
Succesful move
c5g1
8 | R _ B Q K _ N R 
7 | P P P P _ P P P 
6 | _ _ N _ _ _ _ _ 
5 | _ _ _ Q P _ _ _ 
4 | _ _ _ _ _ _ _ _ 
3 | _ _ _ _ _ P _ _ 
2 | P P P _ P _ P P 
1 | R N B _ K B B R 
-------------------
  | A B C D E F G H 

Turn of: white
Succesful move
e1d2
8 | R _ B Q K _ N R 
7 | P P P P _ P P P 
6 | _ _ N _ _ _ _ _ 
5 | _ _ _ Q P _ _ _ 
4 | _ _ _ _ _ _ _ _ 
3 | _ _ _ _ _ P _ _ 
2 | P P P K P _ P P 
1 | R N B _ _ B B R 
-------------------
  | A B C D E F G H 

Turn of: black
Succesful move
c6e5
8 | R _ B Q K _ N R 
7 | P P P P _ P P P 
6 | _ _ _ _ _ _ _ _ 
5 | _ _ _ Q N _ _ _ 
4 | _ _ _ _ _ _ _ _ 
3 | _ _ _ _ _ P _ _ 
2 | P P P K P _ P P 
1 | R N B _ _ B B R 
-------------------
  | A B C D E F G H 

Turn of: white
Succesful move
d5d7
8 | R _ B Q K _ N R 
7 | P P P Q _ P P P 
[...]
3 | _ _ P _ _ _ _ N 
2 | K _ _ _ _ _ _ _ 
1 | _ _ _ _ _ _ _ _ 
-------------------
  | A B C D E F G H 

Turn of: white
Succesful move
a2b1
8 | R _ _ _ K _ _ _ 
7 | _ _ _ _ _ _ _ _ 
6 | _ _ _ _ _ _ _ _ 
5 | _ _ _ _ _ _ P _ 
4 | P P _ _ _ _ P P 
3 | _ _ P _ _ _ _ N 
2 | _ _ _ _ _ _ _ _ 
1 | _ K _ _ _ _ _ _ 
-------------------
  | A B C D E F G H 

Turn of: black
Succesful move
a8c8
8 | _ _ R _ K _ _ _ 
7 | _ _ _ _ _ _ _ _ 
6 | _ _ _ _ _ _ _ _ 
5 | _ _ _ _ _ _ P _ 
4 | P P _ _ _ _ P P 
3 | _ _ P _ _ _ _ N 
2 | _ _ _ _ _ _ _ _ 
1 | _ K _ _ _ _ _ _ 
-------------------
  | A B C D E F G H 

Turn of: white
Succesful move
b1c2
8 | _ _ R _ K _ _ _ 
7 | _ _ _ _ _ _ _ _ 
6 | _ _ _ _ _ _ _ _ 
5 | _ _ _ _ _ _ P _ 
4 | P P _ _ _ _ P P 
3 | _ _ P _ _ _ _ N 
2 | _ _ K _ _ _ _ _ 
1 | _ _ _ _ _ _ _ _ 
-------------------
  | A B C D E F G H 

Turn of: black
Succesful move
b4b3
8 | _ _ R _ K _ _ _ 
7 | _ _ _ _ _ _ _ _ 
6 | _ _ _ _ _ _ _ _ 
5 | _ _ _ _ _ _ P _ 
4 | P _ _ _ _ _ P P 
3 | _ P P _ _ _ _ N 
2 | _ _ K _ _ _ _ _ 
1 | _ _ _ _ _ _ _ _ 
-------------------
  | A B C D E F G H 

Turn of: white
Succesful move
c2d1
8 | _ _ R _ K _ _ _ 
7 | _ _ _ _ _ _ _ _ 
6 | _ _ _ _ _ _ _ _ 
5 | _ _ _ _ _ _ P _ 
4 | P _ _ _ _ _ P P 
3 | _ P P _ _ _ _ N 
2 | _ _ _ _ _ _ _ _ 
1 | _ _ _ K _ _ _ _ 
-------------------
  | A B C D E F G H 

Turn of: black
Succesful move
c8c6
8 | _ _ _ _ K _ _ _ 
7 | _ _ _ _ _ _ _ _ 
6 | _ _ R _ _ _ _ _ 
5 | _ _ _ _ _ _ P _ 
4 | P _ _ _ _ _ P P 
3 | _ P P _ _ _ _ N 
2 | _ _ _ _ _ _ _ _ 
1 | _ _ _ K _ _ _ _ 
-------------------
  | A B C D E F G H 

Turn of: white
Succesful move
d1c1
8 | _ _ _ _ K _ _ _ 
7 | _ _ _ _ _ _ _ _ 
6 | _ _ R _ _ _ _ _ 
5 | _ _ _ _ _ _ P _ 
4 | P _ _ _ _ _ P P 
3 | _ P P _ _ _ _ N 
2 | _ _ _ _ _ _ _ _ 
1 | _ _ K _ _ _ _ _ 
-------------------
  | A B C D E F G H 

Turn of: black
Succesful move
b3b2
8 | _ _ _ _ K _ _ _ 
7 | _ _ _ _ _ _ _ _ 
6 | _ _ R _ _ _ _ _ 
5 | _ _ _ _ _ _ P _ 
4 | P _ _ _ _ _ P P 
3 | _ _ P _ _ _ _ N 
2 | _ P _ _ _ _ _ _ 
1 | _ _ K _ _ _ _ _ 
-------------------
  | A B C D E F G H 

Turn of: white
Succesful move
c1d1
8 | _ _ _ _ K _ _ _ 
7 | _ _ _ _ _ _ _ _ 
6 | _ _ R _ _ _ _ _ 
5 | _ _ _ _ _ _ P _ 
4 | P _ _ _ _ _ P P 
3 | _ _ P _ _ _ _ N 
2 | _ P _ _ _ _ _ _ 
1 | _ _ _ K _ _ _ _ 
-------------------
  | A B C D E F G H 

Turn of: black
Succesful move
b2b1q
8 | _ _ _ _ K _ _ _ 
7 | _ _ _ _ _ _ _ _ 
6 | _ _ R _ _ _ _ _ 
5 | _ _ _ _ _ _ P _ 
4 | P _ _ _ _ _ P P 
3 | _ _ P _ _ _ _ N 
2 | _ _ _ _ _ _ _ _ 
1 | _ Q _ K _ _ _ _ 
-------------------
  | A B C D E F G H 

Turn of: white
Succesful move
d1e2
8 | _ _ _ _ K _ _ _ 
7 | _ _ _ _ _ _ _ _ 
6 | _ _ R _ _ _ _ _ 
5 | _ _ _ _ _ _ P _ 
4 | P _ _ _ _ _ P P 
3 | _ _ P _ _ _ _ N 
2 | _ _ _ _ K _ _ _ 
1 | _ Q _ _ _ _ _ _ 
-------------------
  | A B C D E F G H 

Turn of: black
Succesful move
b1f1
8 | _ _ _ _ K _ _ _ 
7 | _ _ _ _ _ _ _ _ 
6 | _ _ R _ _ _ _ _ 
5 | _ _ _ _ _ _ P _ 
4 | P _ _ _ _ _ P P 
3 | _ _ P _ _ _ _ N 
2 | _ _ _ _ K _ _ _ 
1 | _ _ _ _ _ Q _ _ 
-------------------
  | A B C D E F G H 

Turn of: white
Succesful move
e2e3
8 | _ _ _ _ K _ _ _ 
7 | _ _ _ _ _ _ _ _ 
6 | _ _ R _ _ _ _ _ 
5 | _ _ _ _ _ _ P _ 
4 | P _ _ _ _ _ P P 
3 | _ _ P _ K _ _ N 
2 | _ _ _ _ _ _ _ _ 
1 | _ _ _ _ _ Q _ _ 
-------------------
  | A B C D E F G H 

Turn of: black
Succesful move
f1f7
8 | _ _ _ _ K _ _ _ 
7 | _ _ _ _ _ Q _ _ 
6 | _ _ R _ _ _ _ _ 
5 | _ _ _ _ _ _ P _ 
4 | P _ _ _ _ _ P P 
3 | _ _ P _ K _ _ N 
2 | _ _ _ _ _ _ _ _ 
1 | _ _ _ _ _ _ _ _ 
-------------------
  | A B C D E F G H 

Turn of: white
Succesful move
e3d4
8 | _ _ _ _ K _ _ _ 
7 | _ _ _ _ _ Q _ _ 
6 | _ _ R _ _ _ _ _ 
5 | _ _ _ _ _ _ P _ 
4 | P _ _ K _ _ P P 
3 | _ _ P _ _ _ _ N 
2 | _ _ _ _ _ _ _ _ 
1 | _ _ _ _ _ _ _ _ 
-------------------
  | A B C D E F G H 

Turn of: black
Succesful move
f7f1
8 | _ _ _ _ K _ _ _ 
7 | _ _ _ _ _ _ _ _ 
6 | _ _ R _ _ _ _ _ 
5 | _ _ _ _ _ _ P _ 
4 | P _ _ K _ _ P P 
3 | _ _ P _ _ _ _ N 
2 | _ _ _ _ _ _ _ _ 
1 | _ _ _ _ _ Q _ _ 
-------------------
  | A B C D E F G H 

Turn of: white
Succesful move
d4e4
8 | _ _ _ _ K _ _ _ 
7 | _ _ _ _ _ _ _ _ 
6 | _ _ R _ _ _ _ _ 
5 | _ _ _ _ _ _ P _ 
4 | P _ _ _ K _ P P 
3 | _ _ P _ _ _ _ N 
2 | _ _ _ _ _ _ _ _ 
1 | _ _ _ _ _ Q _ _ 
-------------------
  | A B C D E F G H 

Turn of: black
Succesful move
c6b6
8 | _ _ _ _ K _ _ _ 
7 | _ _ _ _ _ _ _ _ 
6 | _ R _ _ _ _ _ _ 
5 | _ _ _ _ _ _ P _ 
4 | P _ _ _ K _ P P 
3 | _ _ P _ _ _ _ N 
2 | _ _ _ _ _ _ _ _ 
1 | _ _ _ _ _ Q _ _ 
-------------------
  | A B C D E F G H 

Turn of: white
Succesful move
e4d5
8 | _ _ _ _ K _ _ _ 
7 | _ _ _ _ _ _ _ _ 
6 | _ R _ _ _ _ _ _ 
5 | _ _ _ K _ _ P _ 
4 | P _ _ _ _ _ P P 
3 | _ _ P _ _ _ _ N 
2 | _ _ _ _ _ _ _ _ 
1 | _ _ _ _ _ Q _ _ 
-------------------
  | A B C D E F G H 

Turn of: black
Succesful move
b6b5
8 | _ _ _ _ K _ _ _ 
7 | _ _ _ _ _ _ _ _ 
6 | _ _ _ _ _ _ _ _ 
5 | _ R _ K _ _ P _ 
4 | P _ _ _ _ _ P P 
3 | _ _ P _ _ _ _ N 
2 | _ _ _ _ _ _ _ _ 
1 | _ _ _ _ _ Q _ _ 
-------------------
  | A B C D E F G H 

Turn of: white
Succesful move
d5e4
8 | _ _ _ _ K _ _ _ 
7 | _ _ _ _ _ _ _ _ 
6 | _ _ _ _ _ _ _ _ 
5 | _ R _ _ _ _ P _ 
4 | P _ _ _ K _ P P 
3 | _ _ P _ _ _ _ N 
2 | _ _ _ _ _ _ _ _ 
1 | _ _ _ _ _ Q _ _ 
-------------------
  | A B C D E F G H 

Turn of: black
Succesful move
a4a3
8 | _ _ _ _ K _ _ _ 
7 | _ _ _ _ _ _ _ _ 
6 | _ _ _ _ _ _ _ _ 
5 | _ R _ _ _ _ P _ 
4 | _ _ _ _ K _ P P 
3 | P _ P _ _ _ _ N 
2 | _ _ _ _ _ _ _ _ 
1 | _ _ _ _ _ Q _ _ 
-------------------
  | A B C D E F G H 

Turn of: white
Succesful move
e4e3
8 | _ _ _ _ K _ _ _ 
7 | _ _ _ _ _ _ _ _ 
6 | _ _ _ _ _ _ _ _ 
5 | _ R _ _ _ _ P _ 
4 | _ _ _ _ _ _ P P 
3 | P _ P _ K _ _ N 
2 | _ _ _ _ _ _ _ _ 
1 | _ _ _ _ _ Q _ _ 
-------------------
  | A B C D E F G H 

Turn of: black
Succesful move
a3a2
8 | _ _ _ _ K _ _ _ 
7 | _ _ _ _ _ _ _ _ 
6 | _ _ _ _ _ _ _ _ 
5 | _ R _ _ _ _ P _ 
4 | _ _ _ _ _ _ P P 
3 | _ _ P _ K _ _ N 
2 | P _ _ _ _ _ _ _ 
1 | _ _ _ _ _ Q _ _ 
-------------------
  | A B C D E F G H 

Turn of: white
Succesful move
e3e4
8 | _ _ _ _ K _ _ _ 
7 | _ _ _ _ _ _ _ _ 
6 | _ _ _ _ _ _ _ _ 
5 | _ R _ _ _ _ P _ 
4 | _ _ _ _ K _ P P 
3 | _ _ P _ _ _ _ N 
2 | P _ _ _ _ _ _ _ 
1 | _ _ _ _ _ Q _ _ 
-------------------
  | A B C D E F G H 

Turn of: black
Succesful move
a2a1q
8 | _ _ _ _ K _ _ _ 
7 | _ _ _ _ _ _ _ _ 
6 | _ _ _ _ _ _ _ _ 
5 | _ R _ _ _ _ P _ 
4 | _ _ _ _ K _ P P 
3 | _ _ P _ _ _ _ N 
2 | _ _ _ _ _ _ _ _ 
1 | Q _ _ _ _ Q _ _ 
-------------------
  | A B C D E F G H 

Turn of: white
Succesful move
e4d4
8 | _ _ _ _ K _ _ _ 
7 | _ _ _ _ _ _ _ _ 
6 | _ _ _ _ _ _ _ _ 
5 | _ R _ _ _ _ P _ 
4 | _ _ _ K _ _ P P 
3 | _ _ P _ _ _ _ N 
2 | _ _ _ _ _ _ _ _ 
1 | Q _ _ _ _ Q _ _ 
-------------------
  | A B C D E F G H 

Turn of: black
Succesful move
b5d5
8 | _ _ _ _ K _ _ _ 
7 | _ _ _ _ _ _ _ _ 
6 | _ _ _ _ _ _ _ _ 
5 | _ _ _ R _ _ P _ 
4 | _ _ _ K _ _ P P 
3 | _ _ P _ _ _ _ N 
2 | _ _ _ _ _ _ _ _ 
1 | Q _ _ _ _ Q _ _ 
-------------------
  | A B C D E F G H 

Turn of: white
Succesful move
d4e3
8 | _ _ _ _ K _ _ _ 
7 | _ _ _ _ _ _ _ _ 
6 | _ _ _ _ _ _ _ _ 
5 | _ _ _ R _ _ P _ 
4 | _ _ _ _ _ _ P P 
3 | _ _ P _ K _ _ N 
2 | _ _ _ _ _ _ _ _ 
1 | Q _ _ _ _ Q _ _ 
-------------------
  | A B C D E F G H 

Turn of: black
Succesful move
f1f5
8 | _ _ _ _ K _ _ _ 
7 | _ _ _ _ _ _ _ _ 
6 | _ _ _ _ _ _ _ _ 
5 | _ _ _ R _ Q P _ 
4 | _ _ _ _ _ _ P P 
3 | _ _ P _ K _ _ N 
2 | _ _ _ _ _ _ _ _ 
1 | Q _ _ _ _ _ _ _ 
-------------------
  | A B C D E F G H 

Turn of: white
Succesful move
e3e2
8 | _ _ _ _ K _ _ _ 
7 | _ _ _ _ _ _ _ _ 
6 | _ _ _ _ _ _ _ _ 
5 | _ _ _ R _ Q P _ 
4 | _ _ _ _ _ _ P P 
3 | _ _ P _ _ _ _ N 
2 | _ _ _ _ K _ _ _ 
1 | Q _ _ _ _ _ _ _ 
-------------------
  | A B C D E F G H 

Turn of: black
Succesful move
a1e1
8 | _ _ _ _ K _ _ _ 
7 | _ _ _ _ _ _ _ _ 
6 | _ _ _ _ _ _ _ _ 
5 | _ _ _ R _ Q P _ 
4 | _ _ _ _ _ _ P P 
3 | _ _ P _ _ _ _ N 
2 | _ _ _ _ K _ _ _ 
1 | _ _ _ _ Q _ _ _ 
-------------------
  | A B C D E F G H 

Turn of: white
Succesful move
e2e1
8 | _ _ _ _ K _ _ _ 
7 | _ _ _ _ _ _ _ _ 
6 | _ _ _ _ _ _ _ _ 
5 | _ _ _ R _ Q P _ 
4 | _ _ _ _ _ _ P P 
3 | _ _ P _ _ _ _ N 
2 | _ _ _ _ _ _ _ _ 
1 | _ _ _ _ K _ _ _ 
-------------------
  | A B C D E F G H 

Turn of: black
Succesful move
f5e4
8 | _ _ _ _ K _ _ _ 
7 | _ _ _ _ _ _ _ _ 
6 | _ _ _ _ _ _ _ _ 
5 | _ _ _ R _ _ P _ 
4 | _ _ _ _ Q _ P P 
3 | _ _ P _ _ _ _ N 
2 | _ _ _ _ _ _ _ _ 
1 | _ _ _ _ K _ _ _ 
-------------------
  | A B C D E F G H 

Turn of: white
Succesful move
e1f1
8 | _ _ _ _ K _ _ _ 
7 | _ _ _ _ _ _ _ _ 
6 | _ _ _ _ _ _ _ _ 
5 | _ _ _ R _ _ P _ 
4 | _ _ _ _ Q _ P P 
3 | _ _ P _ _ _ _ N 
2 | _ _ _ _ _ _ _ _ 
1 | _ _ _ _ _ K _ _ 
-------------------
  | A B C D E F G H 

Turn of: black
Succesful move
e4d4
8 | _ _ _ _ K _ _ _ 
7 | _ _ _ _ _ _ _ _ 
6 | _ _ _ _ _ _ _ _ 
5 | _ _ _ R _ _ P _ 
4 | _ _ _ Q _ _ P P 
3 | _ _ P _ _ _ _ N 
2 | _ _ _ _ _ _ _ _ 
1 | _ _ _ _ _ K _ _ 
-------------------
  | A B C D E F G H 

Turn of: white
Succesful move
f1e2
8 | _ _ _ _ K _ _ _ 
7 | _ _ _ _ _ _ _ _ 
6 | _ _ _ _ _ _ _ _ 
5 | _ _ _ R _ _ P _ 
4 | _ _ _ Q _ _ P P 
3 | _ _ P _ _ _ _ N 
2 | _ _ _ _ K _ _ _ 
1 | _ _ _ _ _ _ _ _ 
-------------------
  | A B C D E F G H 

Turn of: black
Succesful move
d4g7
8 | _ _ _ _ K _ _ _ 
7 | _ _ _ _ _ _ Q _ 
6 | _ _ _ _ _ _ _ _ 
5 | _ _ _ R _ _ P _ 
4 | _ _ _ _ _ _ P P 
3 | _ _ P _ _ _ _ N 
2 | _ _ _ _ K _ _ _ 
1 | _ _ _ _ _ _ _ _ 
-------------------
  | A B C D E F G H 

Turn of: white
Succesful move
e2f1
8 | _ _ _ _ K _ _ _ 
7 | _ _ _ _ _ _ Q _ 
6 | _ _ _ _ _ _ _ _ 
5 | _ _ _ R _ _ P _ 
4 | _ _ _ _ _ _ P P 
3 | _ _ P _ _ _ _ N 
2 | _ _ _ _ _ _ _ _ 
1 | _ _ _ _ _ K _ _ 
-------------------
  | A B C D E F G H 

Turn of: black
Succesful move
g7g8
8 | _ _ _ _ K _ Q _ 
7 | _ _ _ _ _ _ _ _ 
6 | _ _ _ _ _ _ _ _ 
5 | _ _ _ R _ _ P _ 
4 | _ _ _ _ _ _ P P 
3 | _ _ P _ _ _ _ N 
2 | _ _ _ _ _ _ _ _ 
1 | _ _ _ _ _ K _ _ 
-------------------
  | A B C D E F G H 

Turn of: white
Succesful move
f1g2
8 | _ _ _ _ K _ Q _ 
7 | _ _ _ _ _ _ _ _ 
6 | _ _ _ _ _ _ _ _ 
5 | _ _ _ R _ _ P _ 
4 | _ _ _ _ _ _ P P 
3 | _ _ P _ _ _ _ N 
2 | _ _ _ _ _ _ K _ 
1 | _ _ _ _ _ _ _ _ 
-------------------
  | A B C D E F G H 

Turn of: black
Succesful move
d5d3
8 | _ _ _ _ K _ Q _ 
7 | _ _ _ _ _ _ _ _ 
6 | _ _ _ _ _ _ _ _ 
5 | _ _ _ _ _ _ P _ 
4 | _ _ _ _ _ _ P P 
3 | _ _ P R _ _ _ N 
2 | _ _ _ _ _ _ K _ 
1 | _ _ _ _ _ _ _ _ 
-------------------
  | A B C D E F G H 

Turn of: white
Succesful move
g2f1
8 | _ _ _ _ K _ Q _ 
7 | _ _ _ _ _ _ _ _ 
6 | _ _ _ _ _ _ _ _ 
5 | _ _ _ _ _ _ P _ 
4 | _ _ _ _ _ _ P P 
3 | _ _ P R _ _ _ N 
2 | _ _ _ _ _ _ _ _ 
1 | _ _ _ _ _ K _ _ 
-------------------
  | A B C D E F G H 

Turn of: black
Succesful move
g8f8
8 | _ _ _ _ K Q _ _ 
7 | _ _ _ _ _ _ _ _ 
6 | _ _ _ _ _ _ _ _ 
5 | _ _ _ _ _ _ P _ 
4 | _ _ _ _ _ _ P P 
3 | _ _ P R _ _ _ N 
2 | _ _ _ _ _ _ _ _ 
1 | _ _ _ _ _ K _ _ 
-------------------
  | A B C D E F G H 

Turn of: white
Succesful move
f1e1
8 | _ _ _ _ K Q _ _ 
7 | _ _ _ _ _ _ _ _ 
6 | _ _ _ _ _ _ _ _ 
5 | _ _ _ _ _ _ P _ 
4 | _ _ _ _ _ _ P P 
3 | _ _ P R _ _ _ N 
2 | _ _ _ _ _ _ _ _ 
1 | _ _ _ _ K _ _ _ 
-------------------
  | A B C D E F G H 

Turn of: black
Succesful move
f8b4
8 | _ _ _ _ K _ _ _ 
7 | _ _ _ _ _ _ _ _ 
6 | _ _ _ _ _ _ _ _ 
5 | _ _ _ _ _ _ P _ 
4 | _ Q _ _ _ _ P P 
3 | _ _ P R _ _ _ N 
2 | _ _ _ _ _ _ _ _ 
1 | _ _ _ _ K _ _ _ 
-------------------
  | A B C D E F G H 

Turn of: white
Succesful move
e1e2
8 | _ _ _ _ K _ _ _ 
7 | _ _ _ _ _ _ _ _ 
6 | _ _ _ _ _ _ _ _ 
5 | _ _ _ _ _ _ P _ 
4 | _ Q _ _ _ _ P P 
3 | _ _ P R _ _ _ N 
2 | _ _ _ _ K _ _ _ 
1 | _ _ _ _ _ _ _ _ 
-------------------
  | A B C D E F G H 

Turn of: black
Succesful move
b4a3
8 | _ _ _ _ K _ _ _ 
7 | _ _ _ _ _ _ _ _ 
6 | _ _ _ _ _ _ _ _ 
5 | _ _ _ _ _ _ P _ 
4 | _ _ _ _ _ _ P P 
3 | Q _ P R _ _ _ N 
2 | _ _ _ _ K _ _ _ 
1 | _ _ _ _ _ _ _ _ 
-------------------
  | A B C D E F G H 

Turn of: white
Succesful move
e2e1
8 | _ _ _ _ K _ _ _ 
7 | _ _ _ _ _ _ _ _ 
6 | _ _ _ _ _ _ _ _ 
5 | _ _ _ _ _ _ P _ 
4 | _ _ _ _ _ _ P P 
3 | Q _ P R _ _ _ N 
2 | _ _ _ _ _ _ _ _ 
1 | _ _ _ _ K _ _ _ 
-------------------
  | A B C D E F G H 

Turn of: black
Succesful move
d3d6
8 | _ _ _ _ K _ _ _ 
7 | _ _ _ _ _ _ _ _ 
6 | _ _ _ R _ _ _ _ 
5 | _ _ _ _ _ _ P _ 
4 | _ _ _ _ _ _ P P 
3 | Q _ P _ _ _ _ N 
2 | _ _ _ _ _ _ _ _ 
1 | _ _ _ _ K _ _ _ 
-------------------
  | A B C D E F G H 

Turn of: white
Succesful move
e1f1
8 | _ _ _ _ K _ _ _ 
7 | _ _ _ _ _ _ _ _ 
6 | _ _ _ R _ _ _ _ 
5 | _ _ _ _ _ _ P _ 
4 | _ _ _ _ _ _ P P 
3 | Q _ P _ _ _ _ N 
2 | _ _ _ _ _ _ _ _ 
1 | _ _ _ _ _ K _ _ 
-------------------
  | A B C D E F G H 

Turn of: black
Succesful move
h3g1
8 | _ _ _ _ K _ _ _ 
7 | _ _ _ _ _ _ _ _ 
6 | _ _ _ R _ _ _ _ 
5 | _ _ _ _ _ _ P _ 
4 | _ _ _ _ _ _ P P 
3 | Q _ P _ _ _ _ _ 
2 | _ _ _ _ _ _ _ _ 
1 | _ _ _ _ _ K N _ 
-------------------
  | A B C D E F G H 

Turn of: white
Succesful move
f1g1
8 | _ _ _ _ K _ _ _ 
7 | _ _ _ _ _ _ _ _ 
6 | _ _ _ R _ _ _ _ 
5 | _ _ _ _ _ _ P _ 
4 | _ _ _ _ _ _ P P 
3 | Q _ P _ _ _ _ _ 
2 | _ _ _ _ _ _ _ _ 
1 | _ _ _ _ _ _ K _ 
-------------------
  | A B C D E F G H 

Turn of: black
Succesful move
a3a5
8 | _ _ _ _ K _ _ _ 
7 | _ _ _ _ _ _ _ _ 
6 | _ _ _ R _ _ _ _ 
5 | Q _ _ _ _ _ P _ 
4 | _ _ _ _ _ _ P P 
3 | _ _ P _ _ _ _ _ 
2 | _ _ _ _ _ _ _ _ 
1 | _ _ _ _ _ _ K _ 
-------------------
  | A B C D E F G H 

Turn of: white
Succesful move
g1h2
8 | _ _ _ _ K _ _ _ 
7 | _ _ _ _ _ _ _ _ 
6 | _ _ _ R _ _ _ _ 
5 | Q _ _ _ _ _ P _ 
4 | _ _ _ _ _ _ P P 
3 | _ _ P _ _ _ _ _ 
2 | _ _ _ _ _ _ _ K 
1 | _ _ _ _ _ _ _ _ 
-------------------
  | A B C D E F G H 

Turn of: black
Succesful move
a5a1
8 | _ _ _ _ K _ _ _ 
7 | _ _ _ _ _ _ _ _ 
6 | _ _ _ R _ _ _ _ 
5 | _ _ _ _ _ _ P _ 
4 | _ _ _ _ _ _ P P 
3 | _ _ P _ _ _ _ _ 
2 | _ _ _ _ _ _ _ K 
1 | Q _ _ _ _ _ _ _ 
-------------------
  | A B C D E F G H 

Turn of: white
Succesful move
h2g2
8 | _ _ _ _ K _ _ _ 
7 | _ _ _ _ _ _ _ _ 
6 | _ _ _ R _ _ _ _ 
5 | _ _ _ _ _ _ P _ 
4 | _ _ _ _ _ _ P P 
3 | _ _ P _ _ _ _ _ 
2 | _ _ _ _ _ _ K _ 
1 | Q _ _ _ _ _ _ _ 
-------------------
  | A B C D E F G H 

Turn of: black
Succesful move
d6d1
8 | _ _ _ _ K _ _ _ 
7 | _ _ _ _ _ _ _ _ 
6 | _ _ _ _ _ _ _ _ 
5 | _ _ _ _ _ _ P _ 
4 | _ _ _ _ _ _ P P 
3 | _ _ P _ _ _ _ _ 
2 | _ _ _ _ _ _ K _ 
1 | Q _ _ R _ _ _ _ 
-------------------
  | A B C D E F G H 

Turn of: white
Succesful move
g2h2
8 | _ _ _ _ K _ _ _ 
7 | _ _ _ _ _ _ _ _ 
6 | _ _ _ _ _ _ _ _ 
5 | _ _ _ _ _ _ P _ 
4 | _ _ _ _ _ _ P P 
3 | _ _ P _ _ _ _ _ 
2 | _ _ _ _ _ _ _ K 
1 | Q _ _ R _ _ _ _ 
-------------------
  | A B C D E F G H 

Turn of: black
Succesful move
a1a7
8 | _ _ _ _ K _ _ _ 
7 | Q _ _ _ _ _ _ _ 
6 | _ _ _ _ _ _ _ _ 
5 | _ _ _ _ _ _ P _ 
4 | _ _ _ _ _ _ P P 
3 | _ _ P _ _ _ _ _ 
2 | _ _ _ _ _ _ _ K 
1 | _ _ _ R _ _ _ _ 
-------------------
  | A B C D E F G H 

We are playing as White
Move history:
d2d4
e7e5
d4e5
b8c6
d1d5
f8c5
f2f3
c5g1
e1d2
c6e5
d5d7
d8d7
d2e1
g1h2
b1c3
e5f3
e1f2
f7f6
c3b5
d7b5
a1b1
b5b2
c1g5
b2b1
g2g3
b1f1
h1f1
f6g5
f2e3
h2g3
f1b1
f3g1
c2c3
g1e2
e3e4
e2c3
e4d3
c3b1
d3e2
b1d2
e2d3
h7h6
d3c2
g7g6
a2a3
c8e6
c2d3
d2b3
d3c3
b3d4
c3d2
g3h2
a3a4
e6f5
d2e3
c7c5
e3d2
h2f4
d2c3
d4e6
c3b3
f4e3
b3c3
e6d8
c3b3
a7a6
b3a3
f5d7
a3a2
d7a4
a2b2
a4c2
b2c2
b7b5
c2b1
d8f7
b1b2
a6a5
b2b3
e3c1
b3c2
f7d6
c2d1
d6f5
d1c1
g8f6
c1d1
f5d4
d1e1
h8g8
e1f1
f6d5
f1f2
d4f5
f2e1
g8f8
e1e2
d5b6
e2f3
h6h5
f3e4
b6c4
e4d3
f5g3
d3c2
c4d2
c2d2
f8f3
d2c1
f3f2
c1b1
f2a2
b1a2
a8c8
a2b3
c8b8
b3c3
g5g4
c3d3
b8d8
d3c2
d8c8
c2b1
g6g5
b1b2
c5c4
b2c3
c8d8
c3c2
g3e4
c2b1
e4f2
b1c2
h5h4
c2b1
f2h3
b1a1
b5b4
a1b2
a5a4
b2a1
c4c3
a1a2
d8a8
a2b1
a8c8
b1c2
b4b3
c2d1
c8c6
d1c1
b3b2
c1d1
b2b1q
d1e2
b1f1
e2e3
f1f7
e3d4
f7f1
d4e4
c6b6
e4d5
b6b5
d5e4
a4a3
e4e3
a3a2
e3e4
a2a1q
e4d4
b5d5
d4e3
f1f5
e3e2
a1e1
e2e1
f5e4
e1f1
e4d4
f1e2
d4g7
e2f1
g7g8
f1g2
d5d3
g2f1
g8f8
f1e1
f8b4
e1e2
b4a3
e2e1
d3d6
e1f1
h3g1
f1g1
a3a5
g1h2
a5a1
h2g2
d6d1
g2h2
a1a7
8 | _ _ _ _ K _ _ _ 
7 | Q _ _ _ _ _ _ _ 
6 | _ _ _ _ _ _ _ _ 
5 | _ _ _ _ _ _ P _ 
4 | _ _ _ _ _ _ P P 
3 | _ _ P _ _ _ _ _ 
2 | _ _ _ _ _ _ _ K 
1 | _ _ _ R _ _ _ _ 
-------------------
  | A B C D E F G H 

It is white's turn to play.
AI's move: h2g2
Move written: h2g2
[32;1m[Game] [0mPlayer's error code: 0
[32;1m[Game] [0mChecking move validity...
[32;1m[Board] [0mInitializing board...
[32;1m[Board] [0mLoading history file `championship/lizzie-iii-git-gambit/history.csv`...
[32;1m[Board] [0mLoaded 204 move(s).
[32;1m[Board] [0mLoading move file `championship/lizzie-iii-git-gambit/move.csv`...
[32;1m[Board] [0mWhite player is playing h2 to g2.
[32;1m[Board] [0m
[32;1m[Board] [0m    a b c d e f g h 
[32;1m[Board] [0m  -------------------
[32;1m[Board] [0m8 ||[7;1m [0m| |[7;1m [0m| |[30;1mK[0m| |[7;1m [0m| || 8
[32;1m[Board] [0m  -------------------
[32;1m[Board] [0m7 ||[30;1mQ[0m|[7;1m [0m| |[7;1m [0m| |[7;1m [0m| |[7;1m [0m|| 7
[32;1m[Board] [0m  -------------------
[32;1m[Board] [0m6 ||[7;1m [0m| |[7;1m [0m| |[7;1m [0m| |[7;1m [0m| || 6
[32;1m[Board] [0m  -------------------
[32;1m[Board] [0m5 || |[7;1m [0m| |[7;1m [0m| |[7;1m [0m|[30;1mp[0m|[7;1m [0m|| 5
[32;1m[Board] [0m  -------------------
[32;1m[Board] [0m4 ||[7;1m [0m| |[7;1m [0m| |[7;1m [0m| |[30;1mp[0m|[30;1mp[0m|| 4
[32;1m[Board] [0m  -------------------
[32;1m[Board] [0m3 || |[7;1m [0m|[30;1mp[0m|[7;1m [0m| |[7;1m [0m| |[7;1m [0m|| 3
[32;1m[Board] [0m  -------------------
[32;1m[Board] [0m2 ||[7;1m [0m| |[7;1m [0m| |[7;1m [0m| |[0;1mK[0m| || 2
[32;1m[Board] [0m  -------------------
[32;1m[Board] [0m1 || |[7;1m [0m| |[30;1mr[0m| |[7;1m [0m| |[7;1m [0m|| 1
[32;1m[Board] [0m  -------------------
[32;1m[Board] [0m    a b c d e f g h
[32;1m[Board] [0m
[32;1m[Referee] [0mThis is the turn of the Black player...

    a   b   c   d   e   f   g   h 
8 |   |   |   |   | k |   |   |    | 8
7 | q |   |   |   |   |   |   |    | 7
6 |   |   |   |   |   |   |   |    | 6
5 |   |   |   |   |   |   | p |    | 5
4 |   |   |   |   |   |   | p | p  | 4
3 |   |   | p |   |   |   |   |    | 3
2 |   |   |   |   |   |   | K |    | 2
1 |   |   |   | r |   |   |   |    | 1
    a   b   c   d   e   f   g   h 

next move: a7g1

[32;1m[Game] [0mPlayer's error code: 0
[32;1m[Game] [0mChecking move validity...
[32;1m[Board] [0mInitializing board...
[32;1m[Board] [0mLoading history file `championship/lizzie-iii-git-gambit/history.csv`...
[32;1m[Board] [0mLoaded 205 move(s).
[32;1m[Board] [0mLoading move file `championship/lizzie-iii-git-gambit/move.csv`...
[32;1m[Board] [0mBlack player is playing a7 to g1.
[32;1m[Board] [0m
[32;1m[Board] [0m    a b c d e f g h 
[32;1m[Board] [0m  -------------------
[32;1m[Board] [0m8 ||[7;1m [0m| |[7;1m [0m| |[30;1mK[0m| |[7;1m [0m| || 8
[32;1m[Board] [0m  -------------------
[32;1m[Board] [0m7 || |[7;1m [0m| |[7;1m [0m| |[7;1m [0m| |[7;1m [0m|| 7
[32;1m[Board] [0m  -------------------
[32;1m[Board] [0m6 ||[7;1m [0m| |[7;1m [0m| |[7;1m [0m| |[7;1m [0m| || 6
[32;1m[Board] [0m  -------------------
[32;1m[Board] [0m5 || |[7;1m [0m| |[7;1m [0m| |[7;1m [0m|[30;1mp[0m|[7;1m [0m|| 5
[32;1m[Board] [0m  -------------------
[32;1m[Board] [0m4 ||[7;1m [0m| |[7;1m [0m| |[7;1m [0m| |[30;1mp[0m|[30;1mp[0m|| 4
[32;1m[Board] [0m  -------------------
[32;1m[Board] [0m3 || |[7;1m [0m|[30;1mp[0m|[7;1m [0m| |[7;1m [0m| |[7;1m [0m|| 3
[32;1m[Board] [0m  -------------------
[32;1m[Board] [0m2 ||[7;1m [0m| |[7;1m [0m| |[7;1m [0m| |[0;1mK[0m| || 2
[32;1m[Board] [0m  -------------------
[32;1m[Board] [0m1 || |[7;1m [0m| |[30;1mr[0m| |[7;1m [0m|[30;1mQ[0m|[7;1m [0m|| 1
[32;1m[Board] [0m  -------------------
[32;1m[Board] [0m    a b c d e f g h
[32;1m[Board] [0m
[32;1m[Referee] [0mThis is the turn of the White player...
[32;1m[Board] [0m[33;1m[WARNING][0m [5;1mWhite King in checkmate![0m
[32;1m[Board] [0m[33;1m[WARNING][0m The Black player wins!
