[32;1m[Board] [0mInitializing board...
[32;1m[Board] [0m
[32;1m[Board] [0m    a b c d e f g h 
[32;1m[Board] [0m  -------------------
[32;1m[Board] [0m8 ||[30;1mr[0m|[30;1mk[0m|[30;1mb[0m|[30;1mQ[0m|[30;1mK[0m|[30;1mb[0m|[30;1mk[0m|[30;1mr[0m|| 8
[32;1m[Board] [0m  -------------------
[32;1m[Board] [0m7 ||[30;1mp[0m|[30;1mp[0m|[30;1mp[0m|[30;1mp[0m|[30;1mp[0m|[30;1mp[0m|[30;1mp[0m|[30;1mp[0m|| 7
[32;1m[Board] [0m  -------------------
[32;1m[Board] [0m6 ||[7;1m [0m| |[7;1m [0m| |[7;1m [0m| |[7;1m [0m| || 6
[32;1m[Board] [0m  -------------------
[32;1m[Board] [0m5 || |[7;1m [0m| |[7;1m [0m| |[7;1m [0m| |[7;1m [0m|| 5
[32;1m[Board] [0m  -------------------
[32;1m[Board] [0m4 ||[7;1m [0m| |[7;1m [0m| |[7;1m [0m| |[7;1m [0m| || 4
[32;1m[Board] [0m  -------------------
[32;1m[Board] [0m3 || |[7;1m [0m| |[7;1m [0m| |[7;1m [0m| |[7;1m [0m|| 3
[32;1m[Board] [0m  -------------------
[32;1m[Board] [0m2 ||[0;1mp[0m|[0;1mp[0m|[0;1mp[0m|[0;1mp[0m|[0;1mp[0m|[0;1mp[0m|[0;1mp[0m|[0;1mp[0m|| 2
[32;1m[Board] [0m  -------------------
[32;1m[Board] [0m1 ||[0;1mr[0m|[0;1mk[0m|[0;1mb[0m|[0;1mQ[0m|[0;1mK[0m|[0;1mb[0m|[0;1mk[0m|[0;1mr[0m|| 1
[32;1m[Board] [0m  -------------------
[32;1m[Board] [0m    a b c d e f g h
[32;1m[Board] [0m
[32;1m[Referee] [0mThis is the turn of the White player...
Input file: championship/lizzie-iii-the-terminator/history.csv
Output file: championship/lizzie-iii-the-terminator/move.csv
We are playing as White
Move history:
8 | R N B Q K B N R 
7 | P P P P P P P P 
6 | _ _ _ _ _ _ _ _ 
5 | _ _ _ _ _ _ _ _ 
4 | _ _ _ _ _ _ _ _ 
3 | _ _ _ _ _ _ _ _ 
2 | P P P P P P P P 
1 | R N B Q K B N R 
-------------------
  | A B C D E F G H 

It is white's turn to play.
AI's move: d2d4
Move written: d2d4
[32;1m[Game] [0mPlayer's error code: 0
[32;1m[Game] [0mChecking move validity...
[32;1m[Board] [0mInitializing board...
[32;1m[Board] [0mLoading history file `championship/lizzie-iii-the-terminator/history.csv`...
[32;1m[Board] [0mLoaded 0 move(s).
[32;1m[Board] [0mLoading move file `championship/lizzie-iii-the-terminator/move.csv`...
[32;1m[Board] [0mWhite player is playing d2 to d4.
[32;1m[Board] [0m
[32;1m[Board] [0m    a b c d e f g h 
[32;1m[Board] [0m  -------------------
[32;1m[Board] [0m8 ||[30;1mr[0m|[30;1mk[0m|[30;1mb[0m|[30;1mQ[0m|[30;1mK[0m|[30;1mb[0m|[30;1mk[0m|[30;1mr[0m|| 8
[32;1m[Board] [0m  -------------------
[32;1m[Board] [0m7 ||[30;1mp[0m|[30;1mp[0m|[30;1mp[0m|[30;1mp[0m|[30;1mp[0m|[30;1mp[0m|[30;1mp[0m|[30;1mp[0m|| 7
[32;1m[Board] [0m  -------------------
[32;1m[Board] [0m6 ||[7;1m [0m| |[7;1m [0m| |[7;1m [0m| |[7;1m [0m| || 6
[32;1m[Board] [0m  -------------------
[32;1m[Board] [0m5 || |[7;1m [0m| |[7;1m [0m| |[7;1m [0m| |[7;1m [0m|| 5
[32;1m[Board] [0m  -------------------
[32;1m[Board] [0m4 ||[7;1m [0m| |[7;1m [0m|[0;1mp[0m|[7;1m [0m| |[7;1m [0m| || 4
[32;1m[Board] [0m  -------------------
[32;1m[Board] [0m3 || |[7;1m [0m| |[7;1m [0m| |[7;1m [0m| |[7;1m [0m|| 3
[32;1m[Board] [0m  -------------------
[32;1m[Board] [0m2 ||[0;1mp[0m|[0;1mp[0m|[0;1mp[0m| |[0;1mp[0m|[0;1mp[0m|[0;1mp[0m|[0;1mp[0m|| 2
[32;1m[Board] [0m  -------------------
[32;1m[Board] [0m1 ||[0;1mr[0m|[0;1mk[0m|[0;1mb[0m|[0;1mQ[0m|[0;1mK[0m|[0;1mb[0m|[0;1mk[0m|[0;1mr[0m|| 1
[32;1m[Board] [0m  -------------------
[32;1m[Board] [0m    a b c d e f g h
[32;1m[Board] [0m
[32;1m[Referee] [0mThis is the turn of the Black player...
[32;1m[Game] [0mPlayer's error code: 0
[32;1m[Game] [0mChecking move validity...
[32;1m[Board] [0mInitializing board...
[32;1m[Board] [0mLoading history file `championship/lizzie-iii-the-terminator/history.csv`...
[32;1m[Board] [0mLoaded 1 move(s).
[32;1m[Board] [0mLoading move file `championship/lizzie-iii-the-terminator/move.csv`...
[32;1m[Board] [0mBlack player is playing b7 to b5.
[32;1m[Board] [0m
[32;1m[Board] [0m    a b c d e f g h 
[32;1m[Board] [0m  -------------------
[32;1m[Board] [0m8 ||[30;1mr[0m|[30;1mk[0m|[30;1mb[0m|[30;1mQ[0m|[30;1mK[0m|[30;1mb[0m|[30;1mk[0m|[30;1mr[0m|| 8
[32;1m[Board] [0m  -------------------
[32;1m[Board] [0m7 ||[30;1mp[0m|[7;1m [0m|[30;1mp[0m|[30;1mp[0m|[30;1mp[0m|[30;1mp[0m|[30;1mp[0m|[30;1mp[0m|| 7
[32;1m[Board] [0m  -------------------
[32;1m[Board] [0m6 ||[7;1m [0m| |[7;1m [0m| |[7;1m [0m| |[7;1m [0m| || 6
[32;1m[Board] [0m  -------------------
[32;1m[Board] [0m5 || |[30;1mp[0m| |[7;1m [0m| |[7;1m [0m| |[7;1m [0m|| 5
[32;1m[Board] [0m  -------------------
[32;1m[Board] [0m4 ||[7;1m [0m| |[7;1m [0m|[0;1mp[0m|[7;1m [0m| |[7;1m [0m| || 4
[32;1m[Board] [0m  -------------------
[32;1m[Board] [0m3 || |[7;1m [0m| |[7;1m [0m| |[7;1m [0m| |[7;1m [0m|| 3
[32;1m[Board] [0m  -------------------
[32;1m[Board] [0m2 ||[0;1mp[0m|[0;1mp[0m|[0;1mp[0m| |[0;1mp[0m|[0;1mp[0m|[0;1mp[0m|[0;1mp[0m|| 2
[32;1m[Board] [0m  -------------------
[32;1m[Board] [0m1 ||[0;1mr[0m|[0;1mk[0m|[0;1mb[0m|[0;1mQ[0m|[0;1mK[0m|[0;1mb[0m|[0;1mk[0m|[0;1mr[0m|| 1
[32;1m[Board] [0m  -------------------
[32;1m[Board] [0m    a b c d e f g h
[32;1m[Board] [0m
[32;1m[Referee] [0mThis is the turn of the White player...
Input file: championship/lizzie-iii-the-terminator/history.csv
Output file: championship/lizzie-iii-the-terminator/move.csv
Turn of: white
Succesful move
d2d4
8 | R N B Q K B N R 
7 | P P P P P P P P 
6 | _ _ _ _ _ _ _ _ 
5 | _ _ _ _ _ _ _ _ 
4 | _ _ _ P _ _ _ _ 
3 | _ _ _ _ _ _ _ _ 
2 | P P P _ P P P P 
1 | R N B Q K B N R 
-------------------
  | A B C D E F G H 

Turn of: black
Succesful move
b7b5
8 | R N B Q K B N R 
7 | P _ P P P P P P 
6 | _ _ _ _ _ _ _ _ 
5 | _ P _ _ _ _ _ _ 
4 | _ _ _ P _ _ _ _ 
3 | _ _ _ _ _ _ _ _ 
2 | P P P _ P P P P 
1 | R N B Q K B N R 
-------------------
  | A B C D E F G H 

We are playing as White
Move history:
d2d4
b7b5
8 | R N B Q K B N R 
7 | P _ P P P P P P 
6 | _ _ _ _ _ _ _ _ 
5 | _ P _ _ _ _ _ _ 
4 | _ _ _ P _ _ _ _ 
3 | _ _ _ _ _ _ _ _ 
2 | P P P _ P P P P 
1 | R N B Q K B N R 
-------------------
  | A B C D E F G H 

It is white's turn to play.
AI's move: h2h3
Move written: h2h3
[32;1m[Game] [0mPlayer's error code: 0
[32;1m[Game] [0mChecking move validity...
[32;1m[Board] [0mInitializing board...
[32;1m[Board] [0mLoading history file `championship/lizzie-iii-the-terminator/history.csv`...
[32;1m[Board] [0mLoaded 2 move(s).
[32;1m[Board] [0mLoading move file `championship/lizzie-iii-the-terminator/move.csv`...
[32;1m[Board] [0mWhite player is playing h2 to h3.
[32;1m[Board] [0m
[32;1m[Board] [0m    a b c d e f g h 
[32;1m[Board] [0m  -------------------
[32;1m[Board] [0m8 ||[30;1mr[0m|[30;1mk[0m|[30;1mb[0m|[30;1mQ[0m|[30;1mK[0m|[30;1mb[0m|[30;1mk[0m|[30;1mr[0m|| 8
[32;1m[Board] [0m  -------------------
[32;1m[Board] [0m7 ||[30;1mp[0m|[7;1m [0m|[30;1mp[0m|[30;1mp[0m|[30;1mp[0m|[30;1mp[0m|[30;1mp[0m|[30;1mp[0m|| 7
[32;1m[Board] [0m  -------------------
[32;1m[Board] [0m6 ||[7;1m [0m| |[7;1m [0m| |[7;1m [0m| |[7;1m [0m| || 6
[32;1m[Board] [0m  -------------------
[32;1m[Board] [0m5 || |[30;1mp[0m| |[7;1m [0m| |[7;1m [0m| |[7;1m [0m|| 5
[32;1m[Board] [0m  -------------------
[32;1m[Board] [0m4 ||[7;1m [0m| |[7;1m [0m|[0;1mp[0m|[7;1m [0m| |[7;1m [0m| || 4
[32;1m[Board] [0m  -------------------
[32;1m[Board] [0m3 || |[7;1m [0m| |[7;1m [0m| |[7;1m [0m| |[0;1mp[0m|| 3
[32;1m[Board] [0m  -------------------
[32;1m[Board] [0m2 ||[0;1mp[0m|[0;1mp[0m|[0;1mp[0m| |[0;1mp[0m|[0;1mp[0m|[0;1mp[0m| || 2
[32;1m[Board] [0m  -------------------
[32;1m[Board] [0m1 ||[0;1mr[0m|[0;1mk[0m|[0;1mb[0m|[0;1mQ[0m|[0;1mK[0m|[0;1mb[0m|[0;1mk[0m|[0;1mr[0m|| 1
[32;1m[Board] [0m  -------------------
[32;1m[Board] [0m    a b c d e f g h
[32;1m[Board] [0m
[32;1m[Referee] [0mThis is the turn of the Black player...
[32;1m[Game] [0mPlayer's error code: 0
[32;1m[Game] [0mChecking move validity...
[32;1m[Board] [0mInitializing board...
[32;1m[Board] [0mLoading history file `championship/lizzie-iii-the-terminator/history.csv`...
[32;1m[Board] [0mLoaded 3 move(s).
[32;1m[Board] [0mLoading move file `championship/lizzie-iii-the-terminator/move.csv`...
[32;1m[Board] [0mBlack player is playing a7 to a6.
[32;1m[Board] [0m
[32;1m[Board] [0m    a b c d e f g h 
[32;1m[Board] [0m  -------------------
[32;1m[Board] [0m8 ||[30;1mr[0m|[30;1mk[0m|[30;1mb[0m|[30;1mQ[0m|[30;1mK[0m|[30;1mb[0m|[30;1mk[0m|[30;1mr[0m|| 8
[32;1m[Board] [0m  -------------------
[32;1m[Board] [0m7 || |[7;1m [0m|[30;1mp[0m|[30;1mp[0m|[30;1mp[0m|[30;1mp[0m|[30;1mp[0m|[30;1mp[0m|| 7
[32;1m[Board] [0m  -------------------
[32;1m[Board] [0m6 ||[30;1mp[0m| |[7;1m [0m| |[7;1m [0m| |[7;1m [0m| || 6
[32;1m[Board] [0m  -------------------
[32;1m[Board] [0m5 || |[30;1mp[0m| |[7;1m [0m| |[7;1m [0m| |[7;1m [0m|| 5
[32;1m[Board] [0m  -------------------
[32;1m[Board] [0m4 ||[7;1m [0m| |[7;1m [0m|[0;1mp[0m|[7;1m [0m| |[7;1m [0m| || 4
[32;1m[Board] [0m  -------------------
[32;1m[Board] [0m3 || |[7;1m [0m| |[7;1m [0m| |[7;1m [0m| |[0;1mp[0m|| 3
[32;1m[Board] [0m  -------------------
[32;1m[Board] [0m2 ||[0;1mp[0m|[0;1mp[0m|[0;1mp[0m| |[0;1mp[0m|[0;1mp[0m|[0;1mp[0m| || 2
[32;1m[Board] [0m  -------------------
[32;1m[Board] [0m1 ||[0;1mr[0m|[0;1mk[0m|[0;1mb[0m|[0;1mQ[0m|[0;1mK[0m|[0;1mb[0m|[0;1mk[0m|[0;1mr[0m|| 1
[32;1m[Board] [0m  -------------------
[32;1m[Board] [0m    a b c d e f g h
[32;1m[Board] [0m
[32;1m[Referee] [0mThis is the turn of the White player...
Input file: championship/lizzie-iii-the-terminator/history.csv
Output file: championship/lizzie-iii-the-terminator/move.csv
Turn of: white
Succesful move
d2d4
8 | R N B Q K B N R 
7 | P P P P P P P P 
6 | _ _ _ _ _ _ _ _ 
5 | _ _ _ _ _ _ _ _ 
4 | _ _ _ P _ _ _ _ 
3 | _ _ _ _ _ _ _ _ 
2 | P P P _ P P P P 
1 | R N B Q K B N R 
-------------------
  | A B C D E F G H 

Turn of: black
Succesful move
b7b5
8 | R N B Q K B N R 
7 | P _ P P P P P P 
6 | _ _ _ _ _ _ _ _ 
5 | _ P _ _ _ _ _ _ 
4 | _ _ _ P _ _ _ _ 
3 | _ _ _ _ _ _ _ _ 
2 | P P P _ P P P P 
1 | R N B Q K B N R 
-------------------
  | A B C D E F G H 

Turn of: white
Succesful move
h2h3
8 | R N B Q K B N R 
7 | P _ P P P P P P 
6 | _ _ _ _ _ _ _ _ 
5 | _ P _ _ _ _ _ _ 
4 | _ _ _ P _ _ _ _ 
3 | _ _ _ _ _ _ _ P 
2 | P P P _ P P P _ 
1 | R N B Q K B N R 
-------------------
  | A B C D E F G H 

Turn of: black
Succesful move
a7a6
8 | R N B Q K B N R 
7 | _ _ P P P P P P 
6 | P _ _ _ _ _ _ _ 
5 | _ P _ _ _ _ _ _ 
4 | _ _ _ P _ _ _ _ 
3 | _ _ _ _ _ _ _ P 
2 | P P P _ P P P _ 
1 | R N B Q K B N R 
-------------------
  | A B C D E F G H 

We are playing as White
Move history:
d2d4
b7b5
h2h3
a7a6
8 | R N B Q K B N R 
7 | _ _ P P P P P P 
6 | P _ _ _ _ _ _ _ 
5 | _ P _ _ _ _ _ _ 
4 | _ _ _ P _ _ _ _ 
3 | _ _ _ _ _ _ _ P 
2 | P P P _ P P P _ 
1 | R N B Q K B N R 
-------------------
  | A B C D E F G H 

It is white's turn to play.
AI's move: h1h2
Move written: h1h2
[32;1m[Game] [0mPlayer's error code: 0
[32;1m[Game] [0mChecking move validity...
[32;1m[Board] [0mInitializing board...
[32;1m[Board] [0mLoading history file `championship/lizzie-iii-the-terminator/history.csv`...
[32;1m[Board] [0mLoaded 4 move(s).
[32;1m[Board] [0mLoading move file `championship/lizzie-iii-the-terminator/move.csv`...
[32;1m[Board] [0mWhite player is playing h1 to h2.
[32;1m[Board] [0m
[32;1m[Board] [0m    a b c d e f g h 
[32;1m[Board] [0m  -------------------
[32;1m[Board] [0m8 ||[30;1mr[0m|[30;1mk[0m|[30;1mb[0m|[30;1mQ[0m|[30;1mK[0m|[30;1mb[0m|[30;1mk[0m|[30;1mr[0m|| 8
[32;1m[Board] [0m  -------------------
[32;1m[Board] [0m7 || |[7;1m [0m|[30;1mp[0m|[30;1mp[0m|[30;1mp[0m|[30;1mp[0m|[30;1mp[0m|[30;1mp[0m|| 7
[32;1m[Board] [0m  -------------------
[32;1m[Board] [0m6 ||[30;1mp[0m| |[7;1m [0m| |[7;1m [0m| |[7;1m [0m| || 6
[32;1m[Board] [0m  -------------------
[32;1m[Board] [0m5 || |[30;1mp[0m| |[7;1m [0m| |[7;1m [0m| |[7;1m [0m|| 5
[32;1m[Board] [0m  -------------------
[32;1m[Board] [0m4 ||[7;1m [0m| |[7;1m [0m|[0;1mp[0m|[7;1m [0m| |[7;1m [0m| || 4
[32;1m[Board] [0m  -------------------
[32;1m[Board] [0m3 || |[7;1m [0m| |[7;1m [0m| |[7;1m [0m| |[0;1mp[0m|| 3
[32;1m[Board] [0m  -------------------
[32;1m[Board] [0m2 ||[0;1mp[0m|[0;1mp[0m|[0;1mp[0m| |[0;1mp[0m|[0;1mp[0m|[0;1mp[0m|[0;1mr[0m|| 2
[32;1m[Board] [0m  -------------------
[32;1m[Board] [0m1 ||[0;1mr[0m|[0;1mk[0m|[0;1mb[0m|[0;1mQ[0m|[0;1mK[0m|[0;1mb[0m|[0;1mk[0m|[7;1m [0m|| 1
[32;1m[Board] [0m  -------------------
[32;1m[Board] [0m    a b c d e f g h
[32;1m[Board] [0m
[32;1m[Referee] [0mThis is the turn of the Black player...
[32;1m[Game] [0mPlayer's error code: 0
[32;1m[Game] [0mChecking move validity...
[32;1m[Board] [0mInitializing board...
[32;1m[Board] [0mLoading history file `championship/lizzie-iii-the-terminator/history.csv`...
[32;1m[Board] [0mLoaded 5 move(s).
[32;1m[Board] [0mLoading move file `championship/lizzie-iii-the-terminator/move.csv`...
[32;1m[Board] [0mBlack player is playing c7 to c6.
[32;1m[Board] [0m
[32;1m[Board] [0m    a b c d e f g h 
[32;1m[Board] [0m  -------------------
[32;1m[Board] [0m8 ||[30;1mr[0m|[30;1mk[0m|[30;1mb[0m|[30;1mQ[0m|[30;1mK[0m|[30;1mb[0m|[30;1mk[0m|[30;1mr[0m|| 8
[32;1m[Board] [0m  -------------------
[32;1m[Board] [0m7 || |[7;1m [0m| |[30;1mp[0m|[30;1mp[0m|[30;1mp[0m|[30;1mp[0m|[30;1mp[0m|| 7
[32;1m[Board] [0m  -------------------
[32;1m[Board] [0m6 ||[30;1mp[0m| |[30;1mp[0m| |[7;1m [0m| |[7;1m [0m| || 6
[32;1m[Board] [0m  -------------------
[32;1m[Board] [0m5 || |[30;1mp[0m| |[7;1m [0m| |[7;1m [0m| |[7;1m [0m|| 5
[32;1m[Board] [0m  -------------------
[32;1m[Board] [0m4 ||[7;1m [0m| |[7;1m [0m|[0;1mp[0m|[7;1m [0m| |[7;1m [0m| || 4
[32;1m[Board] [0m  -------------------
[32;1m[Board] [0m3 || |[7;1m [0m| |[7;1m [0m| |[7;1m [0m| |[0;1mp[0m|| 3
[32;1m[Board] [0m  -------------------
[32;1m[Board] [0m2 ||[0;1mp[0m|[0;1mp[0m|[0;1mp[0m| |[0;1mp[0m|[0;1mp[0m|[0;1mp[0m|[0;1mr[0m|| 2
[32;1m[Board] [0m  -------------------
[32;1m[Board] [0m1 ||[0;1mr[0m|[0;1mk[0m|[0;1mb[0m|[0;1mQ[0m|[0;1mK[0m|[0;1mb[0m|[0;1mk[0m|[7;1m [0m|| 1
[32;1m[Board] [0m  -------------------
[32;1m[Board] [0m    a b c d e f g h
[32;1m[Board] [0m
[32;1m[Referee] [0mThis is the turn of the White player...
Input file: championship/lizzie-iii-the-terminator/history.csv
Output file: championship/lizzie-iii-the-terminator/move.csv
Turn of: white
Succesful move
d2d4
8 | R N B Q K B N R 
7 | P P P P P P P P 
6 | _ _ _ _ _ _ _ _ 
5 | _ _ _ _ _ _ _ _ 
4 | _ _ _ P _ _ _ _ 
3 | _ _ _ _ _ _ _ _ 
2 | P P P _ P P P P 
1 | R N B Q K B N R 
-------------------
  | A B C D E F G H 

Turn of: black
Succesful move
b7b5
8 | R N B Q K B N R 
7 | P _ P P P P P P 
6 | _ _ _ _ _ _ _ _ 
5 | _ P _ _ _ _ _ _ 
4 | _ _ _ P _ _ _ _ 
3 | _ _ _ _ _ _ _ _ 
2 | P P P _ P P P P 
1 | R N B Q K B N R 
-------------------
  | A B C D E F G H 

Turn of: white
Succesful move
h2h3
8 | R N B Q K B N R 
7 | P _ P P P P P P 
6 | _ _ _ _ _ _ _ _ 
5 | _ P _ _ _ _ _ _ 
4 | _ _ _ P _ _ _ _ 
3 | _ _ _ _ _ _ _ P 
2 | P P P _ P P P _ 
1 | R N B Q K B N R 
-------------------
  | A B C D E F G H 

Turn of: black
Succesful move
a7a6
8 | R N B Q K B N R 
7 | _ _ P P P P P P 
6 | P _ _ _ _ _ _ _ 
5 | _ P _ _ _ _ _ _ 
4 | _ _ _ P _ _ _ _ 
3 | _ _ _ _ _ _ _ P 
2 | P P P _ P P P _ 
1 | R N B Q K B N R 
-------------------
  | A B C D E F G H 

Turn of: white
Succesful move
h1h2
8 | R N B Q K B N R 
7 | _ _ P P P P P P 
6 | P _ _ _ _ _ _ _ 
5 | _ P _ _ _ _ _ _ 
4 | _ _ _ P _ _ _ _ 
3 | _ _ _ _ _ _ _ P 
2 | P P P _ P P P R 
1 | R N B Q K B N _ 
-------------------
  | A B C D E F G H 

Turn of: black
Succesful move
c7c6
8 | R N B Q K B N R 
7 | _ _ _ P P P P P 
6 | P _ P _ _ _ _ _ 
5 | _ P _ _ _ _ _ _ 
4 | _ _ _ P _ _ _ _ 
3 | _ _ _ _ _ _ _ P 
2 | P P P _ P P P R 
1 | R N B Q K B N _ 
-------------------
  | A B C D E F G H 

We are playing as White
Move history:
d2d4
b7b5
h2h3
a7a6
h1h2
c7c6
8 | R N B Q K B N R 
7 | _ _ _ P P P P P 
6 | P _ P _ _ _ _ _ 
5 | _ P _ _ _ _ _ _ 
4 | _ _ _ P _ _ _ _ 
3 | _ _ _ _ _ _ _ P 
2 | P P P _ P P P R 
1 | R N B Q K B N _ 
-------------------
  | A B C D E F G H 

It is white's turn to play.
AI's move: d1d3
Move written: d1d3
[32;1m[Game] [0mPlayer's error code: 0
[32;1m[Game] [0mChecking move validity...
[32;1m[Board] [0mInitializing board...
[32;1m[Board] [0mLoading history file `championship/lizzie-iii-the-terminator/history.csv`...
[32;1m[Board] [0mLoaded 6 move(s).
[32;1m[Board] [0mLoading move file `championship/lizzie-iii-the-terminator/move.csv`...
[32;1m[Board] [0mWhite player is playing d1 to d3.
[32;1m[Board] [0m
[32;1m[Board] [0m    a b c d e f g h 
[32;1m[Board] [0m  -------------------
[32;1m[Board] [0m8 ||[30;1mr[0m|[30;1mk[0m|[30;1mb[0m|[30;1mQ[0m|[30;1mK[0m|[30;1mb[0m|[30;1mk[0m|[30;1mr[0m|| 8
[32;1m[Board] [0m  -------------------
[32;1m[Board] [0m7 || |[7;1m [0m| |[30;1mp[0m|[30;1mp[0m|[30;1mp[0m|[30;1mp[0m|[30;1mp[0m|| 7
[32;1m[Board] [0m  -------------------
[32;1m[Board] [0m6 ||[30;1mp[0m| |[30;1mp[0m| |[7;1m [0m| |[7;1m [0m| || 6
[32;1m[Board] [0m  -------------------
[32;1m[Board] [0m5 || |[30;1mp[0m| |[7;1m [0m| |[7;1m [0m| |[7;1m [0m|| 5
[32;1m[Board] [0m  -------------------
[32;1m[Board] [0m4 ||[7;1m [0m| |[7;1m [0m|[0;1mp[0m|[7;1m [0m| |[7;1m [0m| || 4
[32;1m[Board] [0m  -------------------
[32;1m[Board] [0m3 || |[7;1m [0m| |[0;1mQ[0m| |[7;1m [0m| |[0;1mp[0m|| 3
[32;1m[Board] [0m  -------------------
[32;1m[Board] [0m2 ||[0;1mp[0m|[0;1mp[0m|[0;1mp[0m| |[0;1mp[0m|[0;1mp[0m|[0;1mp[0m|[0;1mr[0m|| 2
[32;1m[Board] [0m  -------------------
[32;1m[Board] [0m1 ||[0;1mr[0m|[0;1mk[0m|[0;1mb[0m|[7;1m [0m|[0;1mK[0m|[0;1mb[0m|[0;1mk[0m|[7;1m [0m|| 1
[32;1m[Board] [0m  -------------------
[32;1m[Board] [0m    a b c d e f g h
[32;1m[Board] [0m
[32;1m[Referee] [0mThis is the turn of the Black player...
[32;1m[Game] [0mPlayer's error code: 0
[32;1m[Game] [0mChecking move validity...
[32;1m[Board] [0mInitializing board...
[32;1m[Board] [0mLoading history file `championship/lizzie-iii-the-terminator/history.csv`...
[32;1m[Board] [0mLoaded 7 move(s).
[32;1m[Board] [0mLoading move file `championship/lizzie-iii-the-terminator/move.csv`...
[32;1m[Board] [0mBlack player is playing d7 to d6.
[32;1m[Board] [0m
[32;1m[Board] [0m    a b c d e f g h 
[32;1m[Board] [0m  -------------------
[32;1m[Board] [0m8 ||[30;1mr[0m|[30;1mk[0m|[30;1mb[0m|[30;1mQ[0m|[30;1mK[0m|[30;1mb[0m|[30;1mk[0m|[30;1mr[0m|| 8
[32;1m[Board] [0m  -------------------
[32;1m[Board] [0m7 || |[7;1m [0m| |[7;1m [0m|[30;1mp[0m|[30;1mp[0m|[30;1mp[0m|[30;1mp[0m|| 7
[32;1m[Board] [0m  -------------------
[32;1m[Board] [0m6 ||[30;1mp[0m| |[30;1mp[0m|[30;1mp[0m|[7;1m [0m| |[7;1m [0m| || 6
[32;1m[Board] [0m  -------------------
[32;1m[Board] [0m5 || |[30;1mp[0m| |[7;1m [0m| |[7;1m [0m| |[7;1m [0m|| 5
[32;1m[Board] [0m  -------------------
[32;1m[Board] [0m4 ||[7;1m [0m| |[7;1m [0m|[0;1mp[0m|[7;1m [0m| |[7;1m [0m| || 4
[32;1m[Board] [0m  -------------------
[32;1m[Board] [0m3 || |[7;1m [0m| |[0;1mQ[0m| |[7;1m [0m| |[0;1mp[0m|| 3
[32;1m[Board] [0m  -------------------
[32;1m[Board] [0m2 ||[0;1mp[0m|[0;1mp[0m|[0;1mp[0m| |[0;1mp[0m|[0;1mp[0m|[0;1mp[0m|[0;1mr[0m|| 2
[32;1m[Board] [0m  -------------------
[32;1m[Board] [0m1 ||[0;1mr[0m|[0;1mk[0m|[0;1mb[0m|[7;1m [0m|[0;1mK[0m|[0;1mb[0m|[0;1mk[0m|[7;1m [0m|| 1
[32;1m[Board] [0m  -------------------
[32;1m[Board] [0m    a b c d e f g h
[32;1m[Board] [0m
[32;1m[Referee] [0mThis is the turn of the White player...
Input file: championship/lizzie-iii-the-terminator/history.csv
Output file: championship/lizzie-iii-the-terminator/move.csv
Turn of: white
Succesful move
d2d4
8 | R N B Q K B N R 
7 | P P P P P P P P 
6 | _ _ _ _ _ _ _ _ 
5 | _ _ _ _ _ _ _ _ 
4 | _ _ _ P _ _ _ _ 
3 | _ _ _ _ _ _ _ _ 
2 | P P P _ P P P P 
1 | R N B Q K B N R 
-------------------
  | A B C D E F G H 

Turn of: black
Succesful move
b7b5
8 | R N B Q K B N R 
7 | P _ P P P P P P 
6 | _ _ _ _ _ _ _ _ 
5 | _ P _ _ _ _ _ _ 
4 | _ _ _ P _ _ _ _ 
3 | _ _ _ _ _ _ _ _ 
2 | P P P _ P P P P 
1 | R N B Q K B N R 
-------------------
  | A B C D E F G H 

Turn of: white
Succesful move
h2h3
8 | R N B Q K B N R 
7 | P _ P P P P P P 
6 | _ _ _ _ _ _ _ _ 
5 | _ P _ _ _ _ _ _ 
4 | _ _ _ P _ _ _ _ 
3 | _ _ _ _ _ _ _ P 
2 | P P P _ P P P _ 
1 | R N B Q K B N R 
-------------------
  | A B C D E F G H 

Turn of: black
Succesful move
a7a6
8 | R N B Q K B N R 
7 | _ _ P P P P P P 
6 | P _ _ _ _ _ _ _ 
5 | _ P _ _ _ _ _ _ 
4 | _ _ _ P _ _ _ _ 
3 | _ _ _ _ _ _ _ P 
2 | P P P _ P P P _ 
1 | R N B Q K B N R 
-------------------
  | A B C D E F G H 

Turn of: white
Succesful move
h1h2
8 | R N B Q K B N R 
7 | _ _ P P P P P P 
6 | P _ _ _ _ _ _ _ 
5 | _ P _ _ _ _ _ _ 
4 | _ _ _ P _ _ _ _ 
3 | _ _ _ _ _ _ _ P 
2 | P P P _ P P P R 
1 | R N B Q K B N _ 
-------------------
  | A B C D E F G H 

Turn of: black
Succesful move
c7c6
8 | R N B Q K B N R 
7 | _ _ _ P P P P P 
6 | P _ P _ _ _ _ _ 
5 | _ P _ _ _ _ _ _ 
4 | _ _ _ P _ _ _ _ 
3 | _ _ _ _ _ _ _ P 
2 | P P P _ P P P R 
1 | R N B Q K B N _ 
-------------------
  | A B C D E F G H 

Turn of: white
Succesful move
d1d3
8 | R N B Q K B N R 
7 | _ _ _ P P P P P 
6 | P _ P _ _ _ _ _ 
5 | _ P _ _ _ _ _ _ 
4 | _ _ _ P _ _ _ _ 
3 | _ _ _ Q _ _ _ P 
2 | P P P _ P P P R 
1 | R N B _ K B N _ 
-------------------
  | A B C D E F G H 

Turn of: black
Succesful move
d7d6
8 | R N B Q K B N R 
7 | _ _ _ _ P P P P 
6 | P _ P P _ _ _ _ 
5 | _ P _ _ _ _ _ _ 
4 | _ _ _ P _ _ _ _ 
3 | _ _ _ Q _ _ _ P 
2 | P P P _ P P P R 
1 | R N B _ K B N _ 
-------------------
  | A B C D E F G H 

We are playing as White
Move history:
d2d4
b7b5
h2h3
a7a6
h1h2
c7c6
d1d3
d7d6
8 | R N B Q K B N R 
7 | _ _ _ _ P P P P 
6 | P _ P P _ _ _ _ 
5 | _ P _ _ _ _ _ _ 
4 | _ _ _ P _ _ _ _ 
3 | _ _ _ Q _ _ _ P 
2 | P P P _ P P P R 
1 | R N B _ K B N _ 
-------------------
  | A B C D E F G H 

It is white's turn to play.
AI's move: e1d1
Move written: e1d1
[32;1m[Game] [0mPlayer's error code: 0
[32;1m[Game] [0mChecking move validity...
[32;1m[Board] [0mInitializing board...
[32;1m[Board] [0mLoading history file `championship/lizzie-iii-the-terminator/history.csv`...
[32;1m[Board] [0mLoaded 8 move(s).
[32;1m[Board] [0mLoading move file `championship/lizzie-iii-the-terminator/move.csv`...
[32;1m[Board] [0mWhite player is playing e1 to d1.
[32;1m[Board] [0m
[32;1m[Board] [0m    a b c d e f g h 
[32;1m[Board] [0m  -------------------
[32;1m[Board] [0m8 ||[30;1mr[0m|[30;1mk[0m|[30;1mb[0m|[30;1mQ[0m|[30;1mK[0m|[30;1mb[0m|[30;1mk[0m|[30;1mr[0m|| 8
[32;1m[Board] [0m  -------------------
[32;1m[Board] [0m7 || |[7;1m [0m| |[7;1m [0m|[30;1mp[0m|[30;1mp[0m|[30;1mp[0m|[30;1mp[0m|| 7
[32;1m[Board] [0m  -------------------
[32;1m[Board] [0m6 ||[30;1mp[0m| |[30;1mp[0m|[30;1mp[0m|[7;1m [0m| |[7;1m [0m| || 6
[32;1m[Board] [0m  -------------------
[32;1m[Board] [0m5 || |[30;1mp[0m| |[7;1m [0m| |[7;1m [0m| |[7;1m [0m|| 5
[32;1m[Board] [0m  -------------------
[32;1m[Board] [0m4 ||[7;1m [0m| |[7;1m [0m|[0;1mp[0m|[7;1m [0m| |[7;1m [0m| || 4
[32;1m[Board] [0m  -------------------
[32;1m[Board] [0m3 || |[7;1m [0m| |[0;1mQ[0m| |[7;1m [0m| |[0;1mp[0m|| 3
[32;1m[Board] [0m  -------------------
[32;1m[Board] [0m2 ||[0;1mp[0m|[0;1mp[0m|[0;1mp[0m| |[0;1mp[0m|[0;1mp[0m|[0;1mp[0m|[0;1mr[0m|| 2
[32;1m[Board] [0m  -------------------
[32;1m[Board] [0m1 ||[0;1mr[0m|[0;1mk[0m|[0;1mb[0m|[0;1mK[0m| |[0;1mb[0m|[0;1mk[0m|[7;1m [0m|| 1
[32;1m[Board] [0m  -------------------
[32;1m[Board] [0m    a b c d e f g h
[32;1m[Board] [0m
[32;1m[Referee] [0mThis is the turn of the Black player...
[32;1m[Game] [0mPlayer's error code: 0
[32;1m[Game] [0mChecking move validity...
[32;1m[Board] [0mInitializing board...
[32;1m[Board] [0mLoading history file `championship/lizzie-iii-the-terminator/history.csv`...
[32;1m[Board] [0mLoaded 9 move(s).
[32;1m[Board] [0mLoading move file `championship/lizzie-iii-the-terminator/move.csv`...
[32;1m[Board] [0mBlack player is playing b8 to d7.
[32;1m[Board] [0m
[32;1m[Board] [0m    a b c d e f g h 
[32;1m[Board] [0m  -------------------
[32;1m[Board] [0m8 ||[30;1mr[0m| |[30;1mb[0m|[30;1mQ[0m|[30;1mK[0m|[30;1mb[0m|[30;1mk[0m|[30;1mr[0m|| 8
[32;1m[Board] [0m  -------------------
[32;1m[Board] [0m7 || |[7;1m [0m| |[30;1mk[0m|[30;1mp[0m|[30;1mp[0m|[30;1mp[0m|[30;1mp[0m|| 7
[32;1m[Board] [0m  -------------------
[32;1m[Board] [0m6 ||[30;1mp[0m| |[30;1mp[0m|[30;1mp[0m|[7;1m [0m| |[7;1m [0m| || 6
[32;1m[Board] [0m  -------------------
[32;1m[Board] [0m5 || |[30;1mp[0m| |[7;1m [0m| |[7;1m [0m| |[7;1m [0m|| 5
[32;1m[Board] [0m  -------------------
[32;1m[Board] [0m4 ||[7;1m [0m| |[7;1m [0m|[0;1mp[0m|[7;1m [0m| |[7;1m [0m| || 4
[32;1m[Board] [0m  -------------------
[32;1m[Board] [0m3 || |[7;1m [0m| |[0;1mQ[0m| |[7;1m [0m| |[0;1mp[0m|| 3
[32;1m[Board] [0m  -------------------
[32;1m[Board] [0m2 ||[0;1mp[0m|[0;1mp[0m|[0;1mp[0m| |[0;1mp[0m|[0;1mp[0m|[0;1mp[0m|[0;1mr[0m|| 2
[32;1m[Board] [0m  -------------------
[32;1m[Board] [0m1 ||[0;1mr[0m|[0;1mk[0m|[0;1mb[0m|[0;1mK[0m| |[0;1mb[0m|[0;1mk[0m|[7;1m [0m|| 1
[32;1m[Board] [0m  -------------------
[32;1m[Board] [0m    a b c d e f g h
[32;1m[Board] [0m
[32;1m[Referee] [0mThis is the turn of the White player...
Input file: championship/lizzie-iii-the-terminator/history.csv
Output file: championship/lizzie-iii-the-terminator/move.csv
Turn of: white
Succesful move
d2d4
8 | R N B Q K B N R 
7 | P P P P P P P P 
6 | _ _ _ _ _ _ _ _ 
5 | _ _ _ _ _ _ _ _ 
4 | _ _ _ P _ _ _ _ 
3 | _ _ _ _ _ _ _ _ 
2 | P P P _ P P P P 
1 | R N B Q K B N R 
-------------------
  | A B C D E F G H 

Turn of: black
Succesful move
b7b5
8 | R N B Q K B N R 
7 | P _ P P P P P P 
6 | _ _ _ _ _ _ _ _ 
5 | _ P _ _ _ _ _ _ 
4 | _ _ _ P _ _ _ _ 
3 | _ _ _ _ _ _ _ _ 
2 | P P P _ P P P P 
1 | R N B Q K B N R 
-------------------
  | A B C D E F G H 

Turn of: white
Succesful move
h2h3
8 | R N B Q K B N R 
7 | P _ P P P P P P 
6 | _ _ _ _ _ _ _ _ 
5 | _ P _ _ _ _ _ _ 
4 | _ _ _ P _ _ _ _ 
3 | _ _ _ _ _ _ _ P 
2 | P P P _ P P P _ 
1 | R N B Q K B N R 
-------------------
  | A B C D E F G H 

Turn of: black
Succesful move
a7a6
8 | R N B Q K B N R 
7 | _ _ P P P P P P 
6 | P _ _ _ _ _ _ _ 
5 | _ P _ _ _ _ _ _ 
4 | _ _ _ P _ _ _ _ 
3 | _ _ _ _ _ _ _ P 
2 | P P P _ P P P _ 
1 | R N B Q K B N R 
-------------------
  | A B C D E F G H 

Turn of: white
Succesful move
h1h2
8 | R N B Q K B N R 
7 | _ _ P P P P P P 
6 | P _ _ _ _ _ _ _ 
5 | _ P _ _ _ _ _ _ 
4 | _ _ _ P _ _ _ _ 
3 | _ _ _ _ _ _ _ P 
2 | P P P _ P P P R 
1 | R N B Q K B N _ 
-------------------
  | A B C D E F G H 

Turn of: black
Succesful move
c7c6
8 | R N B Q K B N R 
7 | _ _ _ P P P P P 
6 | P _ P _ _ _ _ _ 
5 | _ P _ _ _ _ _ _ 
4 | _ _ _ P _ _ _ _ 
3 | _ _ _ _ _ _ _ P 
2 | P P P _ P P P R 
1 | R N B Q K B N _ 
-------------------
  | A B C D E F G H 

Turn of: white
Succesful move
d1d3
8 | R N B Q K B N R 
7 | _ _ _ P P P P P 
6 | P _ P _ _ _ _ _ 
5 | _ P _ _ _ _ _ _ 
4 | _ _ _ P _ _ _ _ 
3 | _ _ _ Q _ _ _ P 
2 | P P P _ P P P R 
1 | R N B _ K B N _ 
-------------------
  | A B C D E F G H 

Turn of: black
Succesful move
d7d6
8 | R N B Q K B N R 
7 | _ _ _ _ P P P P 
6 | P _ P P _ _ _ _ 
5 | _ P _ _ _ _ _ _ 
4 | _ _ _ P _ _ _ _ 
3 | _ _ _ Q _ _ _ P 
2 | P P P _ P P P R 
1 | R N B _ K B N _ 
-------------------
  | A B C D E F G H 

Turn of: white
Succesful move
e1d1
8 | R N B Q K B N R 
7 | _ _ _ _ P P P P 
6 | P _ P P _ _ _ _ 
5 | _ P _ _ _ _ _ _ 
4 | _ _ _ P _ _ _ _ 
3 | _ _ _ Q _ _ _ P 
2 | P P P _ P P P R 
1 | R N B K _ B N _ 
-------------------
  | A B C D E F G H 

Turn of: black
Succesful move
b8d7
8 | R _ B Q K B N R 
7 | _ _ _ N P P P P 
6 | P _ P P _ _ _ _ 
5 | _ P _ _ _ _ _ _ 
4 | _ _ _ P _ _ _ _ 
3 | _ _ _ Q _ _ _ P 
2 | P P P _ P P P R 
1 | R N B K _ B N _ 
-------------------
  | A B C D E F G H 

We are playing as White
Move history:
d2d4
b7b5
h2h3
a7a6
h1h2
c7c6
d1d3
d7d6
e1d1
b8d7
8 | R _ B Q K B N R 
7 | _ _ _ N P P P P 
6 | P _ P P _ _ _ _ 
5 | _ P _ _ _ _ _ _ 
4 | _ _ _ P _ _ _ _ 
3 | _ _ _ Q _ _ _ P 
2 | P P P _ P P P R 
1 | R N B K _ B N _ 
-------------------
  | A B C D E F G H 

It is white's turn to play.
AI's move: g1f3
Move written: g1f3
[32;1m[Game] [0mPlayer's error code: 0
[32;1m[Game] [0mChecking move validity...
[32;1m[Board] [0mInitializing board...
[32;1m[Board] [0mLoading history file `championship/lizzie-iii-the-terminator/history.csv`...
[32;1m[Board] [0mLoaded 10 move(s).
[32;1m[Board] [0mLoading move file `championship/lizzie-iii-the-terminator/move.csv`...
[32;1m[Board] [0mWhite player is playing g1 to f3.
[32;1m[Board] [0m
[32;1m[Board] [0m    a b c d e f g h 
[32;1m[Board] [0m  -------------------
[32;1m[Board] [0m8 ||[30;1mr[0m| |[30;1mb[0m|[30;1mQ[0m|[30;1mK[0m|[30;1mb[0m|[30;1mk[0m|[30;1mr[0m|| 8
[32;1m[Board] [0m  -------------------
[32;1m[Board] [0m7 || |[7;1m [0m| |[30;1mk[0m|[30;1mp[0m|[30;1mp[0m|[30;1mp[0m|[30;1mp[0m|| 7
[32;1m[Board] [0m  -------------------
[32;1m[Board] [0m6 ||[30;1mp[0m| |[30;1mp[0m|[30;1mp[0m|[7;1m [0m| |[7;1m [0m| || 6
[32;1m[Board] [0m  -------------------
[32;1m[Board] [0m5 || |[30;1mp[0m| |[7;1m [0m| |[7;1m [0m| |[7;1m [0m|| 5
[32;1m[Board] [0m  -------------------
[32;1m[Board] [0m4 ||[7;1m [0m| |[7;1m [0m|[0;1mp[0m|[7;1m [0m| |[7;1m [0m| || 4
[32;1m[Board] [0m  -------------------
[32;1m[Board] [0m3 || |[7;1m [0m| |[0;1mQ[0m| |[0;1mk[0m| |[0;1mp[0m|| 3
[32;1m[Board] [0m  -------------------
[32;1m[Board] [0m2 ||[0;1mp[0m|[0;1mp[0m|[0;1mp[0m| |[0;1mp[0m|[0;1mp[0m|[0;1mp[0m|[0;1mr[0m|| 2
[32;1m[Board] [0m  -------------------
[32;1m[Board] [0m1 ||[0;1mr[0m|[0;1mk[0m|[0;1mb[0m|[0;1mK[0m| |[0;1mb[0m| |[7;1m [0m|| 1
[32;1m[Board] [0m  -------------------
[32;1m[Board] [0m    a b c d e f g h
[32;1m[Board] [0m
[32;1m[Referee] [0mThis is the turn of the Black player...
[32;1m[Game] [0mPlayer's error code: 0
[32;1m[Game] [0mChecking move validity...
[32;1m[Board] [0mInitializing board...
[32;1m[Board] [0mLoading history file `championship/lizzie-iii-the-terminator/history.csv`...
[32;1m[Board] [0mLoaded 11 move(s).
[32;1m[Board] [0mLoading move file `championship/lizzie-iii-the-terminator/move.csv`...
[32;1m[Board] [0mBlack player is playing d7 to b6.
[32;1m[Board] [0m
[32;1m[Board] [0m    a b c d e f g h 
[32;1m[Board] [0m  -------------------
[32;1m[Board] [0m8 ||[30;1mr[0m| |[30;1mb[0m|[30;1mQ[0m|[30;1mK[0m|[30;1mb[0m|[30;1mk[0m|[30;1mr[0m|| 8
[32;1m[Board] [0m  -------------------
[32;1m[Board] [0m7 || |[7;1m [0m| |[7;1m [0m|[30;1mp[0m|[30;1mp[0m|[30;1mp[0m|[30;1mp[0m|| 7
[32;1m[Board] [0m  -------------------
[32;1m[Board] [0m6 ||[30;1mp[0m|[30;1mk[0m|[30;1mp[0m|[30;1mp[0m|[7;1m [0m| |[7;1m [0m| || 6
[32;1m[Board] [0m  -------------------
[32;1m[Board] [0m5 || |[30;1mp[0m| |[7;1m [0m| |[7;1m [0m| |[7;1m [0m|| 5
[32;1m[Board] [0m  -------------------
[32;1m[Board] [0m4 ||[7;1m [0m| |[7;1m [0m|[0;1mp[0m|[7;1m [0m| |[7;1m [0m| || 4
[32;1m[Board] [0m  -------------------
[32;1m[Board] [0m3 || |[7;1m [0m| |[0;1mQ[0m| |[0;1mk[0m| |[0;1mp[0m|| 3
[32;1m[Board] [0m  -------------------
[32;1m[Board] [0m2 ||[0;1mp[0m|[0;1mp[0m|[0;1mp[0m| |[0;1mp[0m|[0;1mp[0m|[0;1mp[0m|[0;1mr[0m|| 2
[32;1m[Board] [0m  -------------------
[32;1m[Board] [0m1 ||[0;1mr[0m|[0;1mk[0m|[0;1mb[0m|[0;1mK[0m| |[0;1mb[0m| |[7;1m [0m|| 1
[32;1m[Board] [0m  -------------------
[32;1m[Board] [0m    a b c d e f g h
[32;1m[Board] [0m
[32;1m[Referee] [0mThis is the turn of the White player...
Input file: championship/lizzie-iii-the-terminator/history.csv
Output file: championship/lizzie-iii-the-terminator/move.csv
Turn of: white
Succesful move
d2d4
8 | R N B Q K B N R 
7 | P P P P P P P P 
6 | _ _ _ _ _ _ _ _ 
5 | _ _ _ _ _ _ _ _ 
4 | _ _ _ P _ _ _ _ 
3 | _ _ _ _ _ _ _ _ 
2 | P P P _ P P P P 
1 | R N B Q K B N R 
-------------------
  | A B C D E F G H 

Turn of: black
Succesful move
b7b5
8 | R N B Q K B N R 
7 | P _ P P P P P P 
6 | _ _ _ _ _ _ _ _ 
5 | _ P _ _ _ _ _ _ 
4 | _ _ _ P _ _ _ _ 
3 | _ _ _ _ _ _ _ _ 
2 | P P P _ P P P P 
1 | R N B Q K B N R 
-------------------
  | A B C D E F G H 

Turn of: white
Succesful move
h2h3
8 | R N B Q K B N R 
7 | P _ P P P P P P 
6 | _ _ _ _ _ _ _ _ 
5 | _ P _ _ _ _ _ _ 
4 | _ _ _ P _ _ _ _ 
3 | _ _ _ _ _ _ _ P 
2 | P P P _ P P P _ 
1 | R N B Q K B N R 
-------------------
  | A B C D E F G H 

Turn of: black
Succesful move
a7a6
8 | R N B Q K B N R 
7 | _ _ P P P P P P 
6 | P _ _ _ _ _ _ _ 
5 | _ P _ _ _ _ _ _ 
4 | _ _ _ P _ _ _ _ 
3 | _ _ _ _ _ _ _ P 
2 | P P P _ P P P _ 
1 | R N B Q K B N R 
-------------------
  | A B C D E F G H 

Turn of: white
Succesful move
h1h2
8 | R N B Q K B N R 
7 | _ _ P P P P P P 
6 | P _ _ _ _ _ _ _ 
5 | _ P _ _ _ _ _ _ 
4 | _ _ _ P _ _ _ _ 
3 | _ _ _ _ _ _ _ P 
2 | P P P _ P P P R 
1 | R N B Q K B N _ 
-------------------
  | A B C D E F G H 

Turn of: black
Succesful move
c7c6
8 | R N B Q K B N R 
7 | _ _ _ P P P P P 
6 | P _ P _ _ _ _ _ 
5 | _ P _ _ _ _ _ _ 
4 | _ _ _ P _ _ _ _ 
3 | _ _ _ _ _ _ _ P 
2 | P P P _ P P P R 
1 | R N B Q K B N _ 
-------------------
  | A B C D E F G H 

Turn of: white
Succesful move
d1d3
8 | R N B Q K B N R 
7 | _ _ _ P P P P P 
6 | P _ P _ _ _ _ _ 
5 | _ P _ _ _ _ _ _ 
4 | _ _ _ P _ _ _ _ 
3 | _ _ _ Q _ _ _ P 
2 | P P P _ P P P R 
1 | R N B _ K B N _ 
-------------------
  | A B C D E F G H 

Turn of: black
Succesful move
d7d6
8 | R N B Q K B N R 
7 | _ _ _ _ P P P P 
6 | P _ P P _ _ _ _ 
5 | _ P _ _ _ _ _ _ 
4 | _ _ _ P _ _ _ _ 
3 | _ _ _ Q _ _ _ P 
2 | P P P _ P P P R 
1 | R N B _ K B N _ 
-------------------
  | A B C D E F G H 

Turn of: white
Succesful move
e1d1
8 | R N B Q K B N R 
7 | _ _ _ _ P P P P 
6 | P _ P P _ _ _ _ 
5 | _ P _ _ _ _ _ _ 
4 | _ _ _ P _ _ _ _ 
3 | _ _ _ Q _ _ _ P 
2 | P P P _ P P P R 
1 | R N B K _ B N _ 
-------------------
  | A B C D E F G H 

Turn of: black
Succesful move
b8d7
8 | R _ B Q K B N R 
7 | _ _ _ N P P P P 
6 | P _ P P _ _ _ _ 
5 | _ P _ _ _ _ _ _ 
4 | _ _ _ P _ _ _ _ 
3 | _ _ _ Q _ _ _ P 
2 | P P P _ P P P R 
1 | R N B K _ B N _ 
-------------------
  | A B C D E F G H 

Turn of: white
Succesful move
g1f3
8 | R _ B Q K B N R 
7 | _ _ _ N P P P P 
6 | P _ P P _ _ _ _ 
5 | _ P _ _ _ _ _ _ 
4 | _ _ _ P _ _ _ _ 
3 | _ _ _ Q _ N _ P 
2 | P P P _ P P P R 
1 | R N B K _ B _ _ 
-------------------
  | A B C D E F G H 

Turn of: black
Succesful move
d7b6
8 | R _ B Q K B N R 
7 | _ _ _ _ P P P P 
6 | P N P P _ _ _ _ 
5 | _ P _ _ _ _ _ _ 
4 | _ _ _ P _ _ _ _ 
3 | _ _ _ Q _ N _ P 
2 | P P P _ P P P R 
1 | R N B K _ B _ _ 
-------------------
  | A B C D E F G H 

We are playing as White
Move history:
d2d4
b7b5
h2h3
a7a6
h1h2
c7c6
d1d3
d7d6
e1d1
b8d7
g1f3
d7b6
8 | R _ B Q K B N R 
7 | _ _ _ _ P P P P 
6 | P N P P _ _ _ _ 
5 | _ P _ _ _ _ _ _ 
4 | _ _ _ P _ _ _ _ 
3 | _ _ _ Q _ N _ P 
2 | P P P _ P P P R 
1 | R N B K _ B _ _ 
-------------------
  | A B C D E F G H 

It is white's turn to play.
AI's move: d3c4
Move written: d3c4
[32;1m[Game] [0mPlayer's error code: 0
[32;1m[Game] [0mChecking move validity...
[32;1m[Board] [0mInitializing board...
[32;1m[Board] [0mLoading history file `championship/lizzie-iii-the-terminator/history.csv`...
[32;1m[Board] [0mLoaded 12 move(s).
[32;1m[Board] [0mLoading move file `championship/lizzie-iii-the-terminator/move.csv`...
[32;1m[Board] [0mWhite player is playing d3 to c4.
[32;1m[Board] [0m
[32;1m[Board] [0m    a b c d e f g h 
[32;1m[Board] [0m  -------------------
[32;1m[Board] [0m8 ||[30;1mr[0m| |[30;1mb[0m|[30;1mQ[0m|[30;1mK[0m|[30;1mb[0m|[30;1mk[0m|[30;1mr[0m|| 8
[32;1m[Board] [0m  -------------------
[32;1m[Board] [0m7 || |[7;1m [0m| |[7;1m [0m|[30;1mp[0m|[30;1mp[0m|[30;1mp[0m|[30;1mp[0m|| 7
[32;1m[Board] [0m  -------------------
[32;1m[Board] [0m6 ||[30;1mp[0m|[30;1mk[0m|[30;1mp[0m|[30;1mp[0m|[7;1m [0m| |[7;1m [0m| || 6
[32;1m[Board] [0m  -------------------
[32;1m[Board] [0m5 || |[30;1mp[0m| |[7;1m [0m| |[7;1m [0m| |[7;1m [0m|| 5
[32;1m[Board] [0m  -------------------
[32;1m[Board] [0m4 ||[7;1m [0m| |[0;1mQ[0m|[0;1mp[0m|[7;1m [0m| |[7;1m [0m| || 4
[32;1m[Board] [0m  -------------------
[32;1m[Board] [0m3 || |[7;1m [0m| |[7;1m [0m| |[0;1mk[0m| |[0;1mp[0m|| 3
[32;1m[Board] [0m  -------------------
[32;1m[Board] [0m2 ||[0;1mp[0m|[0;1mp[0m|[0;1mp[0m| |[0;1mp[0m|[0;1mp[0m|[0;1mp[0m|[0;1mr[0m|| 2
[32;1m[Board] [0m  -------------------
[32;1m[Board] [0m1 ||[0;1mr[0m|[0;1mk[0m|[0;1mb[0m|[0;1mK[0m| |[0;1mb[0m| |[7;1m [0m|| 1
[32;1m[Board] [0m  -------------------
[32;1m[Board] [0m    a b c d e f g h
[32;1m[Board] [0m
[32;1m[Referee] [0mThis is the turn of the Black player...
[32;1m[Game] [0mPlayer's error code: 0
[32;1m[Game] [0mChecking move validity...
[32;1m[Board] [0mInitializing board...
[32;1m[Board] [0mLoading history file `championship/lizzie-iii-the-terminator/history.csv`...
[32;1m[Board] [0mLoaded 13 move(s).
[32;1m[Board] [0mLoading move file `championship/lizzie-iii-the-terminator/move.csv`...
[32;1m[Board] [0mBlack player is playing g7 to g6.
[32;1m[Board] [0m
[32;1m[Board] [0m    a b c d e f g h 
[32;1m[Board] [0m  -------------------
[32;1m[Board] [0m8 ||[30;1mr[0m| |[30;1mb[0m|[30;1mQ[0m|[30;1mK[0m|[30;1mb[0m|[30;1mk[0m|[30;1mr[0m|| 8
[32;1m[Board] [0m  -------------------
[32;1m[Board] [0m7 || |[7;1m [0m| |[7;1m [0m|[30;1mp[0m|[30;1mp[0m| |[30;1mp[0m|| 7
[32;1m[Board] [0m  -------------------
[32;1m[Board] [0m6 ||[30;1mp[0m|[30;1mk[0m|[30;1mp[0m|[30;1mp[0m|[7;1m [0m| |[30;1mp[0m| || 6
[32;1m[Board] [0m  -------------------
[32;1m[Board] [0m5 || |[30;1mp[0m| |[7;1m [0m| |[7;1m [0m| |[7;1m [0m|| 5
[32;1m[Board] [0m  -------------------
[32;1m[Board] [0m4 ||[7;1m [0m| |[0;1mQ[0m|[0;1mp[0m|[7;1m [0m| |[7;1m [0m| || 4
[32;1m[Board] [0m  -------------------
[32;1m[Board] [0m3 || |[7;1m [0m| |[7;1m [0m| |[0;1mk[0m| |[0;1mp[0m|| 3
[32;1m[Board] [0m  -------------------
[32;1m[Board] [0m2 ||[0;1mp[0m|[0;1mp[0m|[0;1mp[0m| |[0;1mp[0m|[0;1mp[0m|[0;1mp[0m|[0;1mr[0m|| 2
[32;1m[Board] [0m  -------------------
[32;1m[Board] [0m1 ||[0;1mr[0m|[0;1mk[0m|[0;1mb[0m|[0;1mK[0m| |[0;1mb[0m| |[7;1m [0m|| 1
[32;1m[Board] [0m  -------------------
[32;1m[Board] [0m    a b c d e f g h
[32;1m[Board] [0m
[32;1m[Referee] [0mThis is the turn of the White player...
Input file: championship/lizzie-iii-the-terminator/history.csv
Output file: championship/lizzie-iii-the-terminator/move.csv
Turn of: white
Succesful move
d2d4
8 | R N B Q K B N R 
7 | P P P P P P P P 
6 | _ _ _ _ _ _ _ _ 
5 | _ _ _ _ _ _ _ _ 
4 | _ _ _ P _ _ _ _ 
3 | _ _ _ _ _ _ _ _ 
2 | P P P _ P P P P 
1 | R N B Q K B N R 
-------------------
  | A B C D E F G H 

Turn of: black
Succesful move
b7b5
8 | R N B Q K B N R 
7 | P _ P P P P P P 
6 | _ _ _ _ _ _ _ _ 
5 | _ P _ _ _ _ _ _ 
4 | _ _ _ P _ _ _ _ 
3 | _ _ _ _ _ _ _ _ 
2 | P P P _ P P P P 
1 | R N B Q K B N R 
-------------------
  | A B C D E F G H 

Turn of: white
Succesful move
h2h3
8 | R N B Q K B N R 
7 | P _ P P P P P P 
6 | _ _ _ _ _ _ _ _ 
5 | _ P _ _ _ _ _ _ 
4 | _ _ _ P _ _ _ _ 
3 | _ _ _ _ _ _ _ P 
2 | P P P _ P P P _ 
1 | R N B Q K B N R 
-------------------
  | A B C D E F G H 

Turn of: black
Succesful move
a7a6
8 | R N B Q K B N R 
7 | _ _ P P P P P P 
6 | P _ _ _ _ _ _ _ 
5 | _ P _ _ _ _ _ _ 
4 | _ _ _ P _ _ _ _ 
3 | _ _ _ _ _ _ _ P 
2 | P P P _ P P P _ 
1 | R N B Q K B N R 
-------------------
  | A B C D E F G H 

Turn of: white
Succesful move
h1h2
8 | R N B Q K B N R 
7 | _ _ P P P P P P 
6 | P _ _ _ _ _ _ _ 
5 | _ P _ _ _ _ _ _ 
4 | _ _ _ P _ _ _ _ 
3 | _ _ _ _ _ _ _ P 
2 | P P P _ P P P R 
1 | R N B Q K B N _ 
-------------------
  | A B C D E F G H 

Turn of: black
Succesful move
c7c6
8 | R N B Q K B N R 
7 | _ _ _ P P P P P 
6 | P _ P _ _ _ _ _ 
5 | _ P _ _ _ _ _ _ 
4 | _ _ _ P _ _ _ _ 
3 | _ _ _ _ _ _ _ P 
2 | P P P _ P P P R 
1 | R N B Q K B N _ 
-------------------
  | A B C D E F G H 

Turn of: white
Succesful move
d1d3
8 | R N B Q K B N R 
7 | _ _ _ P P P P P 
6 | P _ P _ _ _ _ _ 
5 | _ P _ _ _ _ _ _ 
4 | _ _ _ P _ _ _ _ 
3 | _ _ _ Q _ _ _ P 
2 | P P P _ P P P R 
1 | R N B _ K B N _ 
-------------------
  | A B C D E F G H 

Turn of: black
Succesful move
d7d6
8 | R N B Q K B N R 
7 | _ _ _ _ P P P P 
6 | P _ P P _ _ _ _ 
5 | _ P _ _ _ _ _ _ 
4 | _ _ _ P _ _ _ _ 
3 | _ _ _ Q _ _ _ P 
2 | P P P _ P P P R 
1 | R N B _ K B N _ 
-------------------
  | A B C D E F G H 

Turn of: white
Succesful move
e1d1
8 | R N B Q K B N R 
7 | _ _ _ _ P P P P 
6 | P _ P P _ _ _ _ 
5 | _ P _ _ _ _ _ _ 
4 | _ _ _ P _ _ _ _ 
3 | _ _ _ Q _ _ _ P 
2 | P P P _ P P P R 
1 | R N B K _ B N _ 
-------------------
  | A B C D E F G H 

Turn of: black
Succesful move
b8d7
8 | R _ B Q K B N R 
7 | _ _ _ N P P P P 
6 | P _ P P _ _ _ _ 
5 | _ P _ _ _ _ _ _ 
4 | _ _ _ P _ _ _ _ 
3 | _ _ _ Q _ _ _ P 
2 | P P P _ P P P R 
1 | R N B K _ B N _ 
-------------------
  | A B C D E F G H 

Turn of: white
Succesful move
g1f3
8 | R _ B Q K B N R 
7 | _ _ _ N P P P P 
6 | P _ P P _ _ _ _ 
5 | _ P _ _ _ _ _ _ 
4 | _ _ _ P _ _ _ _ 
3 | _ _ _ Q _ N _ P 
2 | P P P _ P P P R 
1 | R N B K _ B _ _ 
-------------------
  | A B C D E F G H 

Turn of: black
Succesful move
d7b6
8 | R _ B Q K B N R 
7 | _ _ _ _ P P P P 
6 | P N P P _ _ _ _ 
5 | _ P _ _ _ _ _ _ 
4 | _ _ _ P _ _ _ _ 
3 | _ _ _ Q _ N _ P 
2 | P P P _ P P P R 
1 | R N B K _ B _ _ 
-------------------
  | A B C D E F G H 

Turn of: white
Succesful move
d3c4
8 | R _ B Q K B N R 
7 | _ _ _ _ P P P P 
6 | P N P P _ _ _ _ 
5 | _ P _ _ _ _ _ _ 
4 | _ _ Q P _ _ _ _ 
3 | _ _ _ _ _ N _ P 
2 | P P P _ P P P R 
1 | R N B K _ B _ _ 
-------------------
  | A B C D E F G H 

Turn of: black
Succesful move
g7g6
8 | R _ B Q K B N R 
7 | _ _ _ _ P P _ P 
6 | P N P P _ _ P _ 
5 | _ P _ _ _ _ _ _ 
4 | _ _ Q P _ _ _ _ 
3 | _ _ _ _ _ N _ P 
2 | P P P _ P P P R 
1 | R N B K _ B _ _ 
-------------------
  | A B C D E F G H 

We are playing as White
Move history:
d2d4
b7b5
h2h3
a7a6
h1h2
c7c6
d1d3
d7d6
e1d1
b8d7
g1f3
d7b6
d3c4
g7g6
8 | R _ B Q K B N R 
7 | _ _ _ _ P P _ P 
6 | P N P P _ _ P _ 
5 | _ P _ _ _ _ _ _ 
4 | _ _ Q P _ _ _ _ 
3 | _ _ _ _ _ N _ P 
2 | P P P _ P P P R 
1 | R N B K _ B _ _ 
-------------------
  | A B C D E F G H 

It is white's turn to play.
AI's move: e2e3
Move written: e2e3
[32;1m[Game] [0mPlayer's error code: 0
[32;1m[Game] [0mChecking move validity...
[32;1m[Board] [0mInitializing board...
[32;1m[Board] [0mLoading history file `championship/lizzie-iii-the-terminator/history.csv`...
[32;1m[Board] [0mLoaded 14 move(s).
[32;1m[Board] [0mLoading move file `championship/lizzie-iii-the-terminator/move.csv`...
[32;1m[Board] [0mWhite player is playing e2 to e3.
[32;1m[Board] [0m
[32;1m[Board] [0m    a b c d e f g h 
[32;1m[Board] [0m  -------------------
[32;1m[Board] [0m8 ||[30;1mr[0m| |[30;1mb[0m|[30;1mQ[0m|[30;1mK[0m|[30;1mb[0m|[30;1mk[0m|[30;1mr[0m|| 8
[32;1m[Board] [0m  -------------------
[32;1m[Board] [0m7 || |[7;1m [0m| |[7;1m [0m|[30;1mp[0m|[30;1mp[0m| |[30;1mp[0m|| 7
[32;1m[Board] [0m  -------------------
[32;1m[Board] [0m6 ||[30;1mp[0m|[30;1mk[0m|[30;1mp[0m|[30;1mp[0m|[7;1m [0m| |[30;1mp[0m| || 6
[32;1m[Board] [0m  -------------------
[32;1m[Board] [0m5 || |[30;1mp[0m| |[7;1m [0m| |[7;1m [0m| |[7;1m [0m|| 5
[32;1m[Board] [0m  -------------------
[32;1m[Board] [0m4 ||[7;1m [0m| |[0;1mQ[0m|[0;1mp[0m|[7;1m [0m| |[7;1m [0m| || 4
[32;1m[Board] [0m  -------------------
[32;1m[Board] [0m3 || |[7;1m [0m| |[7;1m [0m|[0;1mp[0m|[0;1mk[0m| |[0;1mp[0m|| 3
[32;1m[Board] [0m  -------------------
[32;1m[Board] [0m2 ||[0;1mp[0m|[0;1mp[0m|[0;1mp[0m| |[7;1m [0m|[0;1mp[0m|[0;1mp[0m|[0;1mr[0m|| 2
[32;1m[Board] [0m  -------------------
[32;1m[Board] [0m1 ||[0;1mr[0m|[0;1mk[0m|[0;1mb[0m|[0;1mK[0m| |[0;1mb[0m| |[7;1m [0m|| 1
[32;1m[Board] [0m  -------------------
[32;1m[Board] [0m    a b c d e f g h
[32;1m[Board] [0m
[32;1m[Referee] [0mThis is the turn of the Black player...
[32;1m[Game] [0mPlayer's error code: 0
[32;1m[Game] [0mChecking move validity...
[32;1m[Board] [0mInitializing board...
[32;1m[Board] [0mLoading history file `championship/lizzie-iii-the-terminator/history.csv`...
[32;1m[Board] [0mLoaded 15 move(s).
[32;1m[Board] [0mLoading move file `championship/lizzie-iii-the-terminator/move.csv`...
[32;1m[Board] [0mBlack player is playing e7 to e6.
[32;1m[Board] [0m
[32;1m[Board] [0m    a b c d e f g h 
[32;1m[Board] [0m  -------------------
[32;1m[Board] [0m8 ||[30;1mr[0m| |[30;1mb[0m|[30;1mQ[0m|[30;1mK[0m|[30;1mb[0m|[30;1mk[0m|[30;1mr[0m|| 8
[32;1m[Board] [0m  -------------------
[32;1m[Board] [0m7 || |[7;1m [0m| |[7;1m [0m| |[30;1mp[0m| |[30;1mp[0m|| 7
[32;1m[Board] [0m  -------------------
[32;1m[Board] [0m6 ||[30;1mp[0m|[30;1mk[0m|[30;1mp[0m|[30;1mp[0m|[30;1mp[0m| |[30;1mp[0m| || 6
[32;1m[Board] [0m  -------------------
[32;1m[Board] [0m5 || |[30;1mp[0m| |[7;1m [0m| |[7;1m [0m| |[7;1m [0m|| 5
[32;1m[Board] [0m  -------------------
[32;1m[Board] [0m4 ||[7;1m [0m| |[0;1mQ[0m|[0;1mp[0m|[7;1m [0m| |[7;1m [0m| || 4
[32;1m[Board] [0m  -------------------
[32;1m[Board] [0m3 || |[7;1m [0m| |[7;1m [0m|[0;1mp[0m|[0;1mk[0m| |[0;1mp[0m|| 3
[32;1m[Board] [0m  -------------------
[32;1m[Board] [0m2 ||[0;1mp[0m|[0;1mp[0m|[0;1mp[0m| |[7;1m [0m|[0;1mp[0m|[0;1mp[0m|[0;1mr[0m|| 2
[32;1m[Board] [0m  -------------------
[32;1m[Board] [0m1 ||[0;1mr[0m|[0;1mk[0m|[0;1mb[0m|[0;1mK[0m| |[0;1mb[0m| |[7;1m [0m|| 1
[32;1m[Board] [0m  -------------------
[32;1m[Board] [0m    a b c d e f g h
[32;1m[Board] [0m
[32;1m[Referee] [0mThis is the turn of the White player...
Input file: championship/lizzie-iii-the-terminator/history.csv
Output file: championship/lizzie-iii-the-terminator/move.csv
Turn of: white
Succesful move
d2d4
8 | R N B Q K B N R 
7 | P P P P P P P P 
6 | _ _ _ _ _ _ _ _ 
5 | _ _ _ _ _ _ _ _ 
4 | _ _ _ P _ _ _ _ 
3 | _ _ _ _ _ _ _ _ 
2 | P P P _ P P P P 
1 | R N B Q K B N R 
-------------------
  | A B C D E F G H 

Turn of: black
Succesful move
b7b5
8 | R N B Q K B N R 
7 | P _ P P P P P P 
6 | _ _ _ _ _ _ _ _ 
5 | _ P _ _ _ _ _ _ 
4 | _ _ _ P _ _ _ _ 
3 | _ _ _ _ _ _ _ _ 
2 | P P P _ P P P P 
1 | R N B Q K B N R 
-------------------
  | A B C D E F G H 

Turn of: white
Succesful move
h2h3
8 | R N B Q K B N R 
7 | P _ P P P P P P 
6 | _ _ _ _ _ _ _ _ 
5 | _ P _ _ _ _ _ _ 
4 | _ _ _ P _ _ _ _ 
3 | _ _ _ _ _ _ _ P 
2 | P P P _ P P P _ 
1 | R N B Q K B N R 
-------------------
  | A B C D E F G H 

Turn of: black
Succesful move
a7a6
8 | R N B Q K B N R 
7 | _ _ P P P P P P 
6 | P _ _ _ _ _ _ _ 
5 | _ P _ _ _ _ _ _ 
4 | _ _ _ P _ _ _ _ 
3 | _ _ _ _ _ _ _ P 
2 | P P P _ P P P _ 
1 | R N B Q K B N R 
-------------------
  | A B C D E F G H 

Turn of: white
Succesful move
h1h2
8 | R N B Q K B N R 
7 | _ _ P P P P P P 
6 | P _ _ _ _ _ _ _ 
5 | _ P _ _ _ _ _ _ 
4 | _ _ _ P _ _ _ _ 
3 | _ _ _ _ _ _ _ P 
2 | P P P _ P P P R 
1 | R N B Q K B N _ 
-------------------
  | A B C D E F G H 

Turn of: black
Succesful move
c7c6
8 | R N B Q K B N R 
7 | _ _ _ P P P P P 
6 | P _ P _ _ _ _ _ 
5 | _ P _ _ _ _ _ _ 
4 | _ _ _ P _ _ _ _ 
3 | _ _ _ _ _ _ _ P 
2 | P P P _ P P P R 
1 | R N B Q K B N _ 
-------------------
  | A B C D E F G H 

Turn of: white
Succesful move
d1d3
8 | R N B Q K B N R 
7 | _ _ _ P P P P P 
6 | P _ P _ _ _ _ _ 
5 | _ P _ _ _ _ _ _ 
4 | _ _ _ P _ _ _ _ 
3 | _ _ _ Q _ _ _ P 
2 | P P P _ P P P R 
1 | R N B _ K B N _ 
-------------------
  | A B C D E F G H 

Turn of: black
Succesful move
d7d6
8 | R N B Q K B N R 
7 | _ _ _ _ P P P P 
6 | P _ P P _ _ _ _ 
5 | _ P _ _ _ _ _ _ 
4 | _ _ _ P _ _ _ _ 
3 | _ _ _ Q _ _ _ P 
2 | P P P _ P P P R 
1 | R N B _ K B N _ 
-------------------
  | A B C D E F G H 

Turn of: white
Succesful move
e1d1
8 | R N B Q K B N R 
7 | _ _ _ _ P P P P 
6 | P _ P P _ _ _ _ 
5 | _ P _ _ _ _ _ _ 
4 | _ _ _ P _ _ _ _ 
3 | _ _ _ Q _ _ _ P 
2 | P P P _ P P P R 
1 | R N B K _ B N _ 
-------------------
  | A B C D E F G H 

Turn of: black
Succesful move
b8d7
8 | R _ B Q K B N R 
7 | _ _ _ N P P P P 
6 | P _ P P _ _ _ _ 
5 | _ P _ _ _ _ _ _ 
4 | _ _ _ P _ _ _ _ 
3 | _ _ _ Q _ _ _ P 
2 | P P P _ P P P R 
1 | R N B K _ B N _ 
-------------------
  | A B C D E F G H 

Turn of: white
Succesful move
g1f3
8 | R _ B Q K B N R 
7 | _ _ _ N P P P P 
6 | P _ P P _ _ _ _ 
5 | _ P _ _ _ _ _ _ 
4 | _ _ _ P _ _ _ _ 
3 | _ _ _ Q _ N _ P 
2 | P P P _ P P P R 
1 | R N B K _ B _ _ 
-------------------
  | A B C D E F G H 

Turn of: black
Succesful move
d7b6
8 | R _ B Q K B N R 
7 | _ _ _ _ P P P P 
6 | P N P P _ _ _ _ 
5 | _ P _ _ _ _ _ _ 
4 | _ _ _ P _ _ _ _ 
3 | _ _ _ Q _ N _ P 
2 | P P P _ P P P R 
1 | R N B K _ B _ _ 
-------------------
  | A B C D E F G H 

Turn of: white
Succesful move
d3c4
8 | R _ B Q K B N R 
7 | _ _ _ _ P P P P 
6 | P N P P _ _ _ _ 
5 | _ P _ _ _ _ _ _ 
4 | _ _ Q P _ _ _ _ 
3 | _ _ _ _ _ N _ P 
2 | P P P _ P P P R 
1 | R N B K _ B _ _ 
-------------------
  | A B C D E F G H 

Turn of: black
Succesful move
g7g6
8 | R _ B Q K B N R 
7 | _ _ _ _ P P _ P 
6 | P N P P _ _ P _ 
5 | _ P _ _ _ _ _ _ 
4 | _ _ Q P _ _ _ _ 
3 | _ _ _ _ _ N _ P 
2 | P P P _ P P P R 
1 | R N B K _ B _ _ 
-------------------
  | A B C D E F G H 

Turn of: white
Succesful move
e2e3
8 | R _ B Q K B N R 
7 | _ _ _ _ P P _ P 
6 | P N P P _ _ P _ 
5 | _ P _ _ _ _ _ _ 
4 | _ _ Q P _ _ _ _ 
3 | _ _ _ _ P N _ P 
2 | P P P _ _ P P R 
1 | R N B K _ B _ _ 
-------------------
  | A B C D E F G H 

Turn of: black
Succesful move
e7e6
8 | R _ B Q K B N R 
7 | _ _ _ _ _ P _ P 
6 | P N P P P _ P _ 
5 | _ P _ _ _ _ _ _ 
4 | _ _ Q P _ _ _ _ 
3 | _ _ _ _ P N _ P 
2 | P P P _ _ P P R 
1 | R N B K _ B _ _ 
-------------------
  | A B C D E F G H 

We are playing as White
Move history:
d2d4
b7b5
h2h3
a7a6
h1h2
c7c6
d1d3
d7d6
e1d1
b8d7
g1f3
d7b6
d3c4
g7g6
e2e3
e7e6
8 | R _ B Q K B N R 
7 | _ _ _ _ _ P _ P 
6 | P N P P P _ P _ 
5 | _ P _ _ _ _ _ _ 
4 | _ _ Q P _ _ _ _ 
3 | _ _ _ _ P N _ P 
2 | P P P _ _ P P R 
1 | R N B K _ B _ _ 
-------------------
  | A B C D E F G H 

It is white's turn to play.
AI's move: b2b4
Move written: b2b4
[32;1m[Game] [0mPlayer's error code: 0
[32;1m[Game] [0mChecking move validity...
[32;1m[Board] [0mInitializing board...
[32;1m[Board] [0mLoading history file `championship/lizzie-iii-the-terminator/history.csv`...
[32;1m[Board] [0mLoaded 16 move(s).
[32;1m[Board] [0mLoading move file `championship/lizzie-iii-the-terminator/move.csv`...
[32;1m[Board] [0mWhite player is playing b2 to b4.
[32;1m[Board] [0m
[32;1m[Board] [0m    a b c d e f g h 
[32;1m[Board] [0m  -------------------
[32;1m[Board] [0m8 ||[30;1mr[0m| |[30;1mb[0m|[30;1mQ[0m|[30;1mK[0m|[30;1mb[0m|[30;1mk[0m|[30;1mr[0m|| 8
[32;1m[Board] [0m  -------------------
[32;1m[Board] [0m7 || |[7;1m [0m| |[7;1m [0m| |[30;1mp[0m| |[30;1mp[0m|| 7
[32;1m[Board] [0m  -------------------
[32;1m[Board] [0m6 ||[30;1mp[0m|[30;1mk[0m|[30;1mp[0m|[30;1mp[0m|[30;1mp[0m| |[30;1mp[0m| || 6
[32;1m[Board] [0m  -------------------
[32;1m[Board] [0m5 || |[30;1mp[0m| |[7;1m [0m| |[7;1m [0m| |[7;1m [0m|| 5
[32;1m[Board] [0m  -------------------
[32;1m[Board] [0m4 ||[7;1m [0m|[0;1mp[0m|[0;1mQ[0m|[0;1mp[0m|[7;1m [0m| |[7;1m [0m| || 4
[32;1m[Board] [0m  -------------------
[32;1m[Board] [0m3 || |[7;1m [0m| |[7;1m [0m|[0;1mp[0m|[0;1mk[0m| |[0;1mp[0m|| 3
[32;1m[Board] [0m  -------------------
[32;1m[Board] [0m2 ||[0;1mp[0m| |[0;1mp[0m| |[7;1m [0m|[0;1mp[0m|[0;1mp[0m|[0;1mr[0m|| 2
[32;1m[Board] [0m  -------------------
[32;1m[Board] [0m1 ||[0;1mr[0m|[0;1mk[0m|[0;1mb[0m|[0;1mK[0m| |[0;1mb[0m| |[7;1m [0m|| 1
[32;1m[Board] [0m  -------------------
[32;1m[Board] [0m    a b c d e f g h
[32;1m[Board] [0m
[32;1m[Referee] [0mThis is the turn of the Black player...
[32;1m[Game] [0mPlayer's error code: 0
[32;1m[Game] [0mChecking move validity...
[32;1m[Board] [0mInitializing board...
[32;1m[Board] [0mLoading history file `championship/lizzie-iii-the-terminator/history.csv`...
[32;1m[Board] [0mLoaded 17 move(s).
[32;1m[Board] [0mLoading move file `championship/lizzie-iii-the-terminator/move.csv`...
[32;1m[Board] [0mBlack player is playing d6 to d5.
[32;1m[Board] [0m
[32;1m[Board] [0m    a b c d e f g h 
[32;1m[Board] [0m  -------------------
[32;1m[Board] [0m8 ||[30;1mr[0m| |[30;1mb[0m|[30;1mQ[0m|[30;1mK[0m|[30;1mb[0m|[30;1mk[0m|[30;1mr[0m|| 8
[32;1m[Board] [0m  -------------------
[32;1m[Board] [0m7 || |[7;1m [0m| |[7;1m [0m| |[30;1mp[0m| |[30;1mp[0m|| 7
[32;1m[Board] [0m  -------------------
[32;1m[Board] [0m6 ||[30;1mp[0m|[30;1mk[0m|[30;1mp[0m| |[30;1mp[0m| |[30;1mp[0m| || 6
[32;1m[Board] [0m  -------------------
[32;1m[Board] [0m5 || |[30;1mp[0m| |[30;1mp[0m| |[7;1m [0m| |[7;1m [0m|| 5
[32;1m[Board] [0m  -------------------
[32;1m[Board] [0m4 ||[7;1m [0m|[0;1mp[0m|[0;1mQ[0m|[0;1mp[0m|[7;1m [0m| |[7;1m [0m| || 4
[32;1m[Board] [0m  -------------------
[32;1m[Board] [0m3 || |[7;1m [0m| |[7;1m [0m|[0;1mp[0m|[0;1mk[0m| |[0;1mp[0m|| 3
[32;1m[Board] [0m  -------------------
[32;1m[Board] [0m2 ||[0;1mp[0m| |[0;1mp[0m| |[7;1m [0m|[0;1mp[0m|[0;1mp[0m|[0;1mr[0m|| 2
[32;1m[Board] [0m  -------------------
[32;1m[Board] [0m1 ||[0;1mr[0m|[0;1mk[0m|[0;1mb[0m|[0;1mK[0m| |[0;1mb[0m| |[7;1m [0m|| 1
[32;1m[Board] [0m  -------------------
[32;1m[Board] [0m    a b c d e f g h
[32;1m[Board] [0m
[32;1m[Referee] [0mThis is the turn of the White player...
Input file: championship/lizzie-iii-the-terminator/history.csv
Output file: championship/lizzie-iii-the-terminator/move.csv
Turn of: white
Succesful move
d2d4
8 | R N B Q K B N R 
7 | P P P P P P P P 
6 | _ _ _ _ _ _ _ _ 
5 | _ _ _ _ _ _ _ _ 
4 | _ _ _ P _ _ _ _ 
3 | _ _ _ _ _ _ _ _ 
2 | P P P _ P P P P 
1 | R N B Q K B N R 
-------------------
  | A B C D E F G H 

Turn of: black
Succesful move
b7b5
8 | R N B Q K B N R 
7 | P _ P P P P P P 
6 | _ _ _ _ _ _ _ _ 
5 | _ P _ _ _ _ _ _ 
4 | _ _ _ P _ _ _ _ 
3 | _ _ _ _ _ _ _ _ 
2 | P P P _ P P P P 
1 | R N B Q K B N R 
-------------------
  | A B C D E F G H 

Turn of: white
Succesful move
h2h3
8 | R N B Q K B N R 
7 | P _ P P P P P P 
6 | _ _ _ _ _ _ _ _ 
5 | _ P _ _ _ _ _ _ 
4 | _ _ _ P _ _ _ _ 
3 | _ _ _ _ _ _ _ P 
2 | P P P _ P P P _ 
1 | R N B Q K B N R 
-------------------
  | A B C D E F G H 

Turn of: black
Succesful move
a7a6
8 | R N B Q K B N R 
7 | _ _ P P P P P P 
6 | P _ _ _ _ _ _ _ 
5 | _ P _ _ _ _ _ _ 
4 | _ _ _ P _ _ _ _ 
3 | _ _ _ _ _ _ _ P 
2 | P P P _ P P P _ 
1 | R N B Q K B N R 
-------------------
  | A B C D E F G H 

Turn of: white
Succesful move
h1h2
8 | R N B Q K B N R 
7 | _ _ P P P P P P 
6 | P _ _ _ _ _ _ _ 
5 | _ P _ _ _ _ _ _ 
4 | _ _ _ P _ _ _ _ 
3 | _ _ _ _ _ _ _ P 
2 | P P P _ P P P R 
1 | R N B Q K B N _ 
-------------------
  | A B C D E F G H 

Turn of: black
Succesful move
c7c6
8 | R N B Q K B N R 
7 | _ _ _ P P P P P 
6 | P _ P _ _ _ _ _ 
5 | _ P _ _ _ _ _ _ 
4 | _ _ _ P _ _ _ _ 
3 | _ _ _ _ _ _ _ P 
2 | P P P _ P P P R 
1 | R N B Q K B N _ 
-------------------
  | A B C D E F G H 

Turn of: white
Succesful move
d1d3
8 | R N B Q K B N R 
7 | _ _ _ P P P P P 
6 | P _ P _ _ _ _ _ 
5 | _ P _ _ _ _ _ _ 
4 | _ _ _ P _ _ _ _ 
3 | _ _ _ Q _ _ _ P 
2 | P P P _ P P P R 
1 | R N B _ K B N _ 
-------------------
  | A B C D E F G H 

Turn of: black
Succesful move
d7d6
8 | R N B Q K B N R 
7 | _ _ _ _ P P P P 
6 | P _ P P _ _ _ _ 
5 | _ P _ _ _ _ _ _ 
4 | _ _ _ P _ _ _ _ 
3 | _ _ _ Q _ _ _ P 
2 | P P P _ P P P R 
1 | R N B _ K B N _ 
-------------------
  | A B C D E F G H 

Turn of: white
Succesful move
e1d1
8 | R N B Q K B N R 
7 | _ _ _ _ P P P P 
6 | P _ P P _ _ _ _ 
5 | _ P _ _ _ _ _ _ 
4 | _ _ _ P _ _ _ _ 
3 | _ _ _ Q _ _ _ P 
2 | P P P _ P P P R 
1 | R N B K _ B N _ 
-------------------
  | A B C D E F G H 

Turn of: black
Succesful move
b8d7
8 | R _ B Q K B N R 
7 | _ _ _ N P P P P 
6 | P _ P P _ _ _ _ 
5 | _ P _ _ _ _ _ _ 
4 | _ _ _ P _ _ _ _ 
3 | _ _ _ Q _ _ _ P 
2 | P P P _ P P P R 
1 | R N B K _ B N _ 
-------------------
  | A B C D E F G H 

Turn of: white
Succesful move
g1f3
8 | R _ B Q K B N R 
7 | _ _ _ N P P P P 
6 | P _ P P _ _ _ _ 
5 | _ P _ _ _ _ _ _ 
4 | _ _ _ P _ _ _ _ 
3 | _ _ _ Q _ N _ P 
2 | P P P _ P P P R 
1 | R N B K _ B _ _ 
-------------------
  | A B C D E F G H 

Turn of: black
Succesful move
d7b6
8 | R _ B Q K B N R 
7 | _ _ _ _ P P P P 
6 | P N P P _ _ _ _ 
5 | _ P _ _ _ _ _ _ 
4 | _ _ _ P _ _ _ _ 
3 | _ _ _ Q _ N _ P 
2 | P P P _ P P P R 
1 | R N B K _ B _ _ 
-------------------
  | A B C D E F G H 

Turn of: white
Succesful move
d3c4
8 | R _ B Q K B N R 
7 | _ _ _ _ P P P P 
6 | P N P P _ _ _ _ 
5 | _ P _ _ _ _ _ _ 
4 | _ _ Q P _ _ _ _ 
3 | _ _ _ _ _ N _ P 
2 | P P P _ P P P R 
1 | R N B K _ B _ _ 
-------------------
  | A B C D E F G H 

Turn of: black
Succesful move
g7g6
8 | R _ B Q K B N R 
7 | _ _ _ _ P P _ P 
6 | P N P P _ _ P _ 
5 | _ P _ _ _ _ _ _ 
4 | _ _ Q P _ _ _ _ 
3 | _ _ _ _ _ N _ P 
2 | P P P _ P P P R 
1 | R N B K _ B _ _ 
-------------------
  | A B C D E F G H 

Turn of: white
Succesful move
e2e3
8 | R _ B Q K B N R 
7 | _ _ _ _ P P _ P 
6 | P N P P _ _ P _ 
5 | _ P _ _ _ _ _ _ 
4 | _ _ Q P _ _ _ _ 
3 | _ _ _ _ P N _ P 
2 | P P P _ _ P P R 
1 | R N B K _ B _ _ 
-------------------
  | A B C D E F G H 

Turn of: black
Succesful move
e7e6
8 | R _ B Q K B N R 
7 | _ _ _ _ _ P _ P 
6 | P N P P P _ P _ 
5 | _ P _ _ _ _ _ _ 
4 | _ _ Q P _ _ _ _ 
3 | _ _ _ _ P N _ P 
2 | P P P _ _ P P R 
1 | R N B K _ B _ _ 
-------------------
  | A B C D E F G H 

Turn of: white
Succesful move
b2b4
8 | R _ B Q K B N R 
7 | _ _ _ _ _ P _ P 
6 | P N P P P _ P _ 
5 | _ P _ _ _ _ _ _ 
4 | _ P Q P _ _ _ _ 
3 | _ _ _ _ P N _ P 
2 | P _ P _ _ P P R 
1 | R N B K _ B _ _ 
-------------------
  | A B C D E F G H 

Turn of: black
Succesful move
d6d5
8 | R _ B Q K B N R 
7 | _ _ _ _ _ P _ P 
6 | P N P _ P _ P _ 
5 | _ P _ P _ _ _ _ 
4 | _ P Q P _ _ _ _ 
3 | _ _ _ _ P N _ P 
2 | P _ P _ _ P P R 
1 | R N B K _ B _ _ 
-------------------
  | A B C D E F G H 

We are playing as White
Move history:
d2d4
b7b5
h2h3
a7a6
h1h2
c7c6
d1d3
d7d6
e1d1
b8d7
g1f3
d7b6
d3c4
g7g6
e2e3
e7e6
b2b4
d6d5
8 | R _ B Q K B N R 
7 | _ _ _ _ _ P _ P 
6 | P N P _ P _ P _ 
5 | _ P _ P _ _ _ _ 
4 | _ P Q P _ _ _ _ 
3 | _ _ _ _ P N _ P 
2 | P _ P _ _ P P R 
1 | R N B K _ B _ _ 
-------------------
  | A B C D E F G H 

It is white's turn to play.
AI's move: a2a4
Move written: a2a4
[32;1m[Game] [0mPlayer's error code: 0
[32;1m[Game] [0mChecking move validity...
[32;1m[Board] [0mInitializing board...
[32;1m[Board] [0mLoading history file `championship/lizzie-iii-the-terminator/history.csv`...
[32;1m[Board] [0mLoaded 18 move(s).
[32;1m[Board] [0mLoading move file `championship/lizzie-iii-the-terminator/move.csv`...
[32;1m[Board] [0mWhite player is playing a2 to a4.
[32;1m[Board] [0m
[32;1m[Board] [0m    a b c d e f g h 
[32;1m[Board] [0m  -------------------
[32;1m[Board] [0m8 ||[30;1mr[0m| |[30;1mb[0m|[30;1mQ[0m|[30;1mK[0m|[30;1mb[0m|[30;1mk[0m|[30;1mr[0m|| 8
[32;1m[Board] [0m  -------------------
[32;1m[Board] [0m7 || |[7;1m [0m| |[7;1m [0m| |[30;1mp[0m| |[30;1mp[0m|| 7
[32;1m[Board] [0m  -------------------
[32;1m[Board] [0m6 ||[30;1mp[0m|[30;1mk[0m|[30;1mp[0m| |[30;1mp[0m| |[30;1mp[0m| || 6
[32;1m[Board] [0m  -------------------
[32;1m[Board] [0m5 || |[30;1mp[0m| |[30;1mp[0m| |[7;1m [0m| |[7;1m [0m|| 5
[32;1m[Board] [0m  -------------------
[32;1m[Board] [0m4 ||[0;1mp[0m|[0;1mp[0m|[0;1mQ[0m|[0;1mp[0m|[7;1m [0m| |[7;1m [0m| || 4
[32;1m[Board] [0m  -------------------
[32;1m[Board] [0m3 || |[7;1m [0m| |[7;1m [0m|[0;1mp[0m|[0;1mk[0m| |[0;1mp[0m|| 3
[32;1m[Board] [0m  -------------------
[32;1m[Board] [0m2 ||[7;1m [0m| |[0;1mp[0m| |[7;1m [0m|[0;1mp[0m|[0;1mp[0m|[0;1mr[0m|| 2
[32;1m[Board] [0m  -------------------
[32;1m[Board] [0m1 ||[0;1mr[0m|[0;1mk[0m|[0;1mb[0m|[0;1mK[0m| |[0;1mb[0m| |[7;1m [0m|| 1
[32;1m[Board] [0m  -------------------
[32;1m[Board] [0m    a b c d e f g h
[32;1m[Board] [0m
[32;1m[Referee] [0mThis is the turn of the Black player...
[32;1m[Game] [0mPlayer's error code: 0
[32;1m[Game] [0mChecking move validity...
[32;1m[Board] [0mInitializing board...
[32;1m[Board] [0mLoading history file `championship/lizzie-iii-the-terminator/history.csv`...
[32;1m[Board] [0mLoaded 19 move(s).
[32;1m[Board] [0mLoading move file `championship/lizzie-iii-the-terminator/move.csv`...
[32;1m[Board] [0mBlack player is playing d8 to d6.
[32;1m[Board] [0m
[32;1m[Board] [0m    a b c d e f g h 
[32;1m[Board] [0m  -------------------
[32;1m[Board] [0m8 ||[30;1mr[0m| |[30;1mb[0m| |[30;1mK[0m|[30;1mb[0m|[30;1mk[0m|[30;1mr[0m|| 8
[32;1m[Board] [0m  -------------------
[32;1m[Board] [0m7 || |[7;1m [0m| |[7;1m [0m| |[30;1mp[0m| |[30;1mp[0m|| 7
[32;1m[Board] [0m  -------------------
[32;1m[Board] [0m6 ||[30;1mp[0m|[30;1mk[0m|[30;1mp[0m|[30;1mQ[0m|[30;1mp[0m| |[30;1mp[0m| || 6
[32;1m[Board] [0m  -------------------
[32;1m[Board] [0m5 || |[30;1mp[0m| |[30;1mp[0m| |[7;1m [0m| |[7;1m [0m|| 5
[32;1m[Board] [0m  -------------------
[32;1m[Board] [0m4 ||[0;1mp[0m|[0;1mp[0m|[0;1mQ[0m|[0;1mp[0m|[7;1m [0m| |[7;1m [0m| || 4
[32;1m[Board] [0m  -------------------
[32;1m[Board] [0m3 || |[7;1m [0m| |[7;1m [0m|[0;1mp[0m|[0;1mk[0m| |[0;1mp[0m|| 3
[32;1m[Board] [0m  -------------------
[32;1m[Board] [0m2 ||[7;1m [0m| |[0;1mp[0m| |[7;1m [0m|[0;1mp[0m|[0;1mp[0m|[0;1mr[0m|| 2
[32;1m[Board] [0m  -------------------
[32;1m[Board] [0m1 ||[0;1mr[0m|[0;1mk[0m|[0;1mb[0m|[0;1mK[0m| |[0;1mb[0m| |[7;1m [0m|| 1
[32;1m[Board] [0m  -------------------
[32;1m[Board] [0m    a b c d e f g h
[32;1m[Board] [0m
[32;1m[Referee] [0mThis is the turn of the White player...
Input file: championship/lizzie-iii-the-terminator/history.csv
Output file: championship/lizzie-iii-the-terminator/move.csv
Turn of: white
Succesful move
d2d4
8 | R N B Q K B N R 
7 | P P P P P P P P 
6 | _ _ _ _ _ _ _ _ 
5 | _ _ _ _ _ _ _ _ 
4 | _ _ _ P _ _ _ _ 
3 | _ _ _ _ _ _ _ _ 
2 | P P P _ P P P P 
1 | R N B Q K B N R 
-------------------
  | A B C D E F G H 

Turn of: black
Succesful move
b7b5
8 | R N B Q K B N R 
7 | P _ P P P P P P 
6 | _ _ _ _ _ _ _ _ 
5 | _ P _ _ _ _ _ _ 
4 | _ _ _ P _ _ _ _ 
3 | _ _ _ _ _ _ _ _ 
2 | P P P _ P P P P 
1 | R N B Q K B N R 
-------------------
  | A B C D E F G H 

Turn of: white
Succesful move
h2h3
8 | R N B Q K B N R 
7 | P _ P P P P P P 
6 | _ _ _ _ _ _ _ _ 
5 | _ P _ _ _ _ _ _ 
4 | _ _ _ P _ _ _ _ 
3 | _ _ _ _ _ _ _ P 
2 | P P P _ P P P _ 
1 | R N B Q K B N R 
-------------------
  | A B C D E F G H 

Turn of: black
Succesful move
a7a6
8 | R N B Q K B N R 
7 | _ _ P P P P P P 
6 | P _ _ _ _ _ _ _ 
5 | _ P _ _ _ _ _ _ 
4 | _ _ _ P _ _ _ _ 
3 | _ _ _ _ _ _ _ P 
2 | P P P _ P P P _ 
1 | R N B Q K B N R 
-------------------
  | A B C D E F G H 

Turn of: white
Succesful move
h1h2
8 | R N B Q K B N R 
7 | _ _ P P P P P P 
6 | P _ _ _ _ _ _ _ 
5 | _ P _ _ _ _ _ _ 
4 | _ _ _ P _ _ _ _ 
3 | _ _ _ _ _ _ _ P 
2 | P P P _ P P P R 
1 | R N B Q K B N _ 
-------------------
  | A B C D E F G H 

Turn of: black
Succesful move
c7c6
8 | R N B Q K B N R 
7 | _ _ _ P P P P P 
6 | P _ P _ _ _ _ _ 
5 | _ P _ _ _ _ _ _ 
4 | _ _ _ P _ _ _ _ 
3 | _ _ _ _ _ _ _ P 
2 | P P P _ P P P R 
1 | R N B Q K B N _ 
-------------------
  | A B C D E F G H 

Turn of: white
Succesful move
d1d3
8 | R N B Q K B N R 
7 | _ _ _ P P P P P 
6 | P _ P _ _ _ _ _ 
5 | _ P _ _ _ _ _ _ 
4 | _ _ _ P _ _ _ _ 
3 | _ _ _ Q _ _ _ P 
2 | P P P _ P P P R 
1 | R N B _ K B N _ 
-------------------
  | A B C D E F G H 

Turn of: black
Succesful move
d7d6
8 | R N B Q K B N R 
7 | _ _ _ _ P P P P 
6 | P _ P P _ _ _ _ 
5 | _ P _ _ _ _ _ _ 
4 | _ _ _ P _ _ _ _ 
3 | _ _ _ Q _ _ _ P 
2 | P P P _ P P P R 
1 | R N B _ K B N _ 
-------------------
  | A B C D E F G H 

Turn of: white
Succesful move
e1d1
8 | R N B Q K B N R 
7 | _ _ _ _ P P P P 
6 | P _ P P _ _ _ _ 
5 | _ P _ _ _ _ _ _ 
4 | _ _ _ P _ _ _ _ 
3 | _ _ _ Q _ _ _ P 
2 | P P P _ P P P R 
1 | R N B K _ B N _ 
-------------------
  | A B C D E F G H 

Turn of: black
Succesful move
b8d7
8 | R _ B Q K B N R 
7 | _ _ _ N P P P P 
6 | P _ P P _ _ _ _ 
5 | _ P _ _ _ _ _ _ 
4 | _ _ _ P _ _ _ _ 
3 | _ _ _ Q _ _ _ P 
2 | P P P _ P P P R 
1 | R N B K _ B N _ 
-------------------
  | A B C D E F G H 

Turn of: white
Succesful move
g1f3
8 | R _ B Q K B N R 
7 | _ _ _ N P P P P 
6 | P _ P P _ _ _ _ 
5 | _ P _ _ _ _ _ _ 
4 | _ _ _ P _ _ _ _ 
3 | _ _ _ Q _ N _ P 
2 | P P P _ P P P R 
1 | R N B K _ B _ _ 
-------------------
  | A B C D E F G H 

Turn of: black
Succesful move
d7b6
8 | R _ B Q K B N R 
7 | _ _ _ _ P P P P 
6 | P N P P _ _ _ _ 
5 | _ P _ _ _ _ _ _ 
4 | _ _ _ P _ _ _ _ 
3 | _ _ _ Q _ N _ P 
2 | P P P _ P P P R 
1 | R N B K _ B _ _ 
-------------------
  | A B C D E F G H 

Turn of: white
Succesful move
d3c4
8 | R _ B Q K B N R 
7 | _ _ _ _ P P P P 
6 | P N P P _ _ _ _ 
5 | _ P _ _ _ _ _ _ 
4 | _ _ Q P _ _ _ _ 
3 | _ _ _ _ _ N _ P 
2 | P P P _ P P P R 
1 | R N B K _ B _ _ 
-------------------
  | A B C D E F G H 

Turn of: black
Succesful move
g7g6
8 | R _ B Q K B N R 
7 | _ _ _ _ P P _ P 
6 | P N P P _ _ P _ 
5 | _ P _ _ _ _ _ _ 
4 | _ _ Q P _ _ _ _ 
3 | _ _ _ _ _ N _ P 
2 | P P P _ P P P R 
1 | R N B K _ B _ _ 
-------------------
  | A B C D E F G H 

Turn of: white
Succesful move
e2e3
8 | R _ B Q K B N R 
7 | _ _ _ _ P P _ P 
6 | P N P P _ _ P _ 
5 | _ P _ _ _ _ _ _ 
4 | _ _ Q P _ _ _ _ 
3 | _ _ _ _ P N _ P 
2 | P P P _ _ P P R 
1 | R N B K _ B _ _ 
-------------------
  | A B C D E F G H 

Turn of: black
Succesful move
e7e6
8 | R _ B Q K B N R 
7 | _ _ _ _ _ P _ P 
6 | P N P P P _ P _ 
5 | _ P _ _ _ _ _ _ 
4 | _ _ Q P _ _ _ _ 
3 | _ _ _ _ P N _ P 
2 | P P P _ _ P P R 
1 | R N B K _ B _ _ 
-------------------
  | A B C D E F G H 

Turn of: white
Succesful move
b2b4
8 | R _ B Q K B N R 
7 | _ _ _ _ _ P _ P 
6 | P N P P P _ P _ 
5 | _ P _ _ _ _ _ _ 
4 | _ P Q P _ _ _ _ 
3 | _ _ _ _ P N _ P 
2 | P _ P _ _ P P R 
1 | R N B K _ B _ _ 
-------------------
  | A B C D E F G H 

Turn of: black
Succesful move
d6d5
8 | R _ B Q K B N R 
7 | _ _ _ _ _ P _ P 
6 | P N P _ P _ P _ 
5 | _ P _ P _ _ _ _ 
4 | _ P Q P _ _ _ _ 
3 | _ _ _ _ P N _ P 
2 | P _ P _ _ P P R 
1 | R N B K _ B _ _ 
-------------------
  | A B C D E F G H 

Turn of: white
Succesful move
a2a4
8 | R _ B Q K B N R 
7 | _ _ _ _ _ P _ P 
6 | P N P _ P _ P _ 
5 | _ P _ P _ _ _ _ 
4 | P P Q P _ _ _ _ 
3 | _ _ _ _ P N _ P 
2 | _ _ P _ _ P P R 
1 | R N B K _ B _ _ 
-------------------
  | A B C D E F G H 

Turn of: black
Succesful move
d8d6
8 | R _ B _ K B N R 
7 | _ _ _ _ _ P _ P 
6 | P N P Q P _ P _ 
5 | _ P _ P _ _ _ _ 
4 | P P Q P _ _ _ _ 
3 | _ _ _ _ P N _ P 
2 | _ _ P _ _ P P R 
1 | R N B K _ B _ _ 
-------------------
  | A B C D E F G H 

We are playing as White
Move history:
d2d4
b7b5
h2h3
a7a6
h1h2
c7c6
d1d3
d7d6
e1d1
b8d7
g1f3
d7b6
d3c4
g7g6
e2e3
e7e6
b2b4
d6d5
a2a4
d8d6
8 | R _ B _ K B N R 
7 | _ _ _ _ _ P _ P 
6 | P N P Q P _ P _ 
5 | _ P _ P _ _ _ _ 
4 | P P Q P _ _ _ _ 
3 | _ _ _ _ P N _ P 
2 | _ _ P _ _ P P R 
1 | R N B K _ B _ _ 
-------------------
  | A B C D E F G H 

It is white's turn to play.
AI's move: c4b3
Move written: c4b3
[32;1m[Game] [0mPlayer's error code: 0
[32;1m[Game] [0mChecking move validity...
[32;1m[Board] [0mInitializing board...
[32;1m[Board] [0mLoading history file `championship/lizzie-iii-the-terminator/history.csv`...
[32;1m[Board] [0mLoaded 20 move(s).
[32;1m[Board] [0mLoading move file `championship/lizzie-iii-the-terminator/move.csv`...
[32;1m[Board] [0mWhite player is playing c4 to b3.
[32;1m[Board] [0m
[32;1m[Board] [0m    a b c d e f g h 
[32;1m[Board] [0m  -------------------
[32;1m[Board] [0m8 ||[30;1mr[0m| |[30;1mb[0m| |[30;1mK[0m|[30;1mb[0m|[30;1mk[0m|[30;1mr[0m|| 8
[32;1m[Board] [0m  -------------------
[32;1m[Board] [0m7 || |[7;1m [0m| |[7;1m [0m| |[30;1mp[0m| |[30;1mp[0m|| 7
[32;1m[Board] [0m  -------------------
[32;1m[Board] [0m6 ||[30;1mp[0m|[30;1mk[0m|[30;1mp[0m|[30;1mQ[0m|[30;1mp[0m| |[30;1mp[0m| || 6
[32;1m[Board] [0m  -------------------
[32;1m[Board] [0m5 || |[30;1mp[0m| |[30;1mp[0m| |[7;1m [0m| |[7;1m [0m|| 5
[32;1m[Board] [0m  -------------------
[32;1m[Board] [0m4 ||[0;1mp[0m|[0;1mp[0m|[7;1m [0m|[0;1mp[0m|[7;1m [0m| |[7;1m [0m| || 4
[32;1m[Board] [0m  -------------------
[32;1m[Board] [0m3 || |[0;1mQ[0m| |[7;1m [0m|[0;1mp[0m|[0;1mk[0m| |[0;1mp[0m|| 3
[32;1m[Board] [0m  -------------------
[32;1m[Board] [0m2 ||[7;1m [0m| |[0;1mp[0m| |[7;1m [0m|[0;1mp[0m|[0;1mp[0m|[0;1mr[0m|| 2
[32;1m[Board] [0m  -------------------
[32;1m[Board] [0m1 ||[0;1mr[0m|[0;1mk[0m|[0;1mb[0m|[0;1mK[0m| |[0;1mb[0m| |[7;1m [0m|| 1
[32;1m[Board] [0m  -------------------
[32;1m[Board] [0m    a b c d e f g h
[32;1m[Board] [0m
[32;1m[Referee] [0mThis is the turn of the Black player...
[32;1m[Game] [0mPlayer's error code: 0
[32;1m[Game] [0mChecking move validity...
[32;1m[Board] [0mInitializing board...
[32;1m[Board] [0mLoading history file `championship/lizzie-iii-the-terminator/history.csv`...
[32;1m[Board] [0mLoaded 21 move(s).
[32;1m[Board] [0mLoading move file `championship/lizzie-iii-the-terminator/move.csv`...
[32;1m[Board] [0mBlack player is playing f7 to f6.
[32;1m[Board] [0m
[32;1m[Board] [0m    a b c d e f g h 
[32;1m[Board] [0m  -------------------
[32;1m[Board] [0m8 ||[30;1mr[0m| |[30;1mb[0m| |[30;1mK[0m|[30;1mb[0m|[30;1mk[0m|[30;1mr[0m|| 8
[32;1m[Board] [0m  -------------------
[32;1m[Board] [0m7 || |[7;1m [0m| |[7;1m [0m| |[7;1m [0m| |[30;1mp[0m|| 7
[32;1m[Board] [0m  -------------------
[32;1m[Board] [0m6 ||[30;1mp[0m|[30;1mk[0m|[30;1mp[0m|[30;1mQ[0m|[30;1mp[0m|[30;1mp[0m|[30;1mp[0m| || 6
[32;1m[Board] [0m  -------------------
[32;1m[Board] [0m5 || |[30;1mp[0m| |[30;1mp[0m| |[7;1m [0m| |[7;1m [0m|| 5
[32;1m[Board] [0m  -------------------
[32;1m[Board] [0m4 ||[0;1mp[0m|[0;1mp[0m|[7;1m [0m|[0;1mp[0m|[7;1m [0m| |[7;1m [0m| || 4
[32;1m[Board] [0m  -------------------
[32;1m[Board] [0m3 || |[0;1mQ[0m| |[7;1m [0m|[0;1mp[0m|[0;1mk[0m| |[0;1mp[0m|| 3
[32;1m[Board] [0m  -------------------
[32;1m[Board] [0m2 ||[7;1m [0m| |[0;1mp[0m| |[7;1m [0m|[0;1mp[0m|[0;1mp[0m|[0;1mr[0m|| 2
[32;1m[Board] [0m  -------------------
[32;1m[Board] [0m1 ||[0;1mr[0m|[0;1mk[0m|[0;1mb[0m|[0;1mK[0m| |[0;1mb[0m| |[7;1m [0m|| 1
[32;1m[Board] [0m  -------------------
[32;1m[Board] [0m    a b c d e f g h
[32;1m[Board] [0m
[32;1m[Referee] [0mThis is the turn of the White player...
Input file: championship/lizzie-iii-the-terminator/history.csv
Output file: championship/lizzie-iii-the-terminator/move.csv
Turn of: white
Succesful move
d2d4
8 | R N B Q K B N R 
7 | P P P P P P P P 
6 | _ _ _ _ _ _ _ _ 
5 | _ _ _ _ _ _ _ _ 
4 | _ _ _ P _ _ _ _ 
3 | _ _ _ _ _ _ _ _ 
2 | P P P _ P P P P 
1 | R N B Q K B N R 
-------------------
  | A B C D E F G H 

Turn of: black
Succesful move
b7b5
8 | R N B Q K B N R 
7 | P _ P P P P P P 
6 | _ _ _ _ _ _ _ _ 
5 | _ P _ _ _ _ _ _ 
4 | _ _ _ P _ _ _ _ 
3 | _ _ _ _ _ _ _ _ 
2 | P P P _ P P P P 
1 | R N B Q K B N R 
-------------------
  | A B C D E F G H 

Turn of: white
Succesful move
h2h3
8 | R N B Q K B N R 
7 | P _ P P P P P P 
6 | _ _ _ _ _ _ _ _ 
5 | _ P _ _ _ _ _ _ 
4 | _ _ _ P _ _ _ _ 
3 | _ _ _ _ _ _ _ P 
2 | P P P _ P P P _ 
1 | R N B Q K B N R 
-------------------
  | A B C D E F G H 

Turn of: black
Succesful move
a7a6
8 | R N B Q K B N R 
7 | _ _ P P P P P P 
6 | P _ _ _ _ _ _ _ 
5 | _ P _ _ _ _ _ _ 
4 | _ _ _ P _ _ _ _ 
3 | _ _ _ _ _ _ _ P 
2 | P P P _ P P P _ 
1 | R N B Q K B N R 
-------------------
  | A B C D E F G H 

Turn of: white
Succesful move
h1h2
8 | R N B Q K B N R 
7 | _ _ P P P P P P 
6 | P _ _ _ _ _ _ _ 
5 | _ P _ _ _ _ _ _ 
4 | _ _ _ P _ _ _ _ 
3 | _ _ _ _ _ _ _ P 
2 | P P P _ P P P R 
1 | R N B Q K B N _ 
-------------------
  | A B C D E F G H 

Turn of: black
Succesful move
c7c6
8 | R N B Q K B N R 
7 | _ _ _ P P P P P 
6 | P _ P _ _ _ _ _ 
5 | _ P _ _ _ _ _ _ 
4 | _ _ _ P _ _ _ _ 
3 | _ _ _ _ _ _ _ P 
2 | P P P _ P P P R 
1 | R N B Q K B N _ 
-------------------
  | A B C D E F G H 

Turn of: white
Succesful move
d1d3
8 | R N B Q K B N R 
7 | _ _ _ P P P P P 
6 | P _ P _ _ _ _ _ 
5 | _ P _ _ _ _ _ _ 
4 | _ _ _ P _ _ _ _ 
3 | _ _ _ Q _ _ _ P 
2 | P P P _ P P P R 
1 | R N B _ K B N _ 
-------------------
  | A B C D E F G H 

Turn of: black
Succesful move
d7d6
8 | R N B Q K B N R 
7 | _ _ _ _ P P P P 
6 | P _ P P _ _ _ _ 
5 | _ P _ _ _ _ _ _ 
4 | _ _ _ P _ _ _ _ 
3 | _ _ _ Q _ _ _ P 
2 | P P P _ P P P R 
1 | R N B _ K B N _ 
-------------------
  | A B C D E F G H 

Turn of: white
Succesful move
e1d1
8 | R N B Q K B N R 
7 | _ _ _ _ P P P P 
6 | P _ P P _ _ _ _ 
5 | _ P _ _ _ _ _ _ 
4 | _ _ _ P _ _ _ _ 
3 | _ _ _ Q _ _ _ P 
2 | P P P _ P P P R 
1 | R N B K _ B N _ 
-------------------
  | A B C D E F G H 

Turn of: black
Succesful move
b8d7
8 | R _ B Q K B N R 
7 | _ _ _ N P P P P 
6 | P _ P P _ _ _ _ 
5 | _ P _ _ _ _ _ _ 
4 | _ _ _ P _ _ _ _ 
3 | _ _ _ Q _ _ _ P 
2 | P P P _ P P P R 
1 | R N B K _ B N _ 
-------------------
  | A B C D E F G H 

Turn of: white
Succesful move
g1f3
8 | R _ B Q K B N R 
7 | _ _ _ N P P P P 
6 | P _ P P _ _ _ _ 
5 | _ P _ _ _ _ _ _ 
4 | _ _ _ P _ _ _ _ 
3 | _ _ _ Q _ N _ P 
2 | P P P _ P P P R 
1 | R N B K _ B _ _ 
-------------------
  | A B C D E F G H 

Turn of: black
Succesful move
d7b6
8 | R _ B Q K B N R 
7 | _ _ _ _ P P P P 
6 | P N P P _ _ _ _ 
5 | _ P _ _ _ _ _ _ 
4 | _ _ _ P _ _ _ _ 
3 | _ _ _ Q _ N _ P 
2 | P P P _ P P P R 
1 | R N B K _ B _ _ 
-------------------
  | A B C D E F G H 

Turn of: white
Succesful move
d3c4
8 | R _ B Q K B N R 
7 | _ _ _ _ P P P P 
6 | P N P P _ _ _ _ 
5 | _ P _ _ _ _ _ _ 
4 | _ _ Q P _ _ _ _ 
3 | _ _ _ _ _ N _ P 
2 | P P P _ P P P R 
1 | R N B K _ B _ _ 
-------------------
  | A B C D E F G H 

Turn of: black
Succesful move
g7g6
8 | R _ B Q K B N R 
7 | _ _ _ _ P P _ P 
6 | P N P P _ _ P _ 
5 | _ P _ _ _ _ _ _ 
4 | _ _ Q P _ _ _ _ 
3 | _ _ _ _ _ N _ P 
2 | P P P _ P P P R 
1 | R N B K _ B _ _ 
-------------------
  | A B C D E F G H 

Turn of: white
Succesful move
e2e3
8 | R _ B Q K B N R 
7 | _ _ _ _ P P _ P 
6 | P N P P _ _ P _ 
5 | _ P _ _ _ _ _ _ 
4 | _ _ Q P _ _ _ _ 
3 | _ _ _ _ P N _ P 
2 | P P P _ _ P P R 
1 | R N B K _ B _ _ 
-------------------
  | A B C D E F G H 

Turn of: black
Succesful move
e7e6
8 | R _ B Q K B N R 
7 | _ _ _ _ _ P _ P 
6 | P N P P P _ P _ 
5 | _ P _ _ _ _ _ _ 
4 | _ _ Q P _ _ _ _ 
3 | _ _ _ _ P N _ P 
2 | P P P _ _ P P R 
1 | R N B K _ B _ _ 
-------------------
  | A B C D E F G H 

Turn of: white
Succesful move
b2b4
8 | R _ B Q K B N R 
7 | _ _ _ _ _ P _ P 
6 | P N P P P _ P _ 
5 | _ P _ _ _ _ _ _ 
4 | _ P Q P _ _ _ _ 
3 | _ _ _ _ P N _ P 
2 | P _ P _ _ P P R 
1 | R N B K _ B _ _ 
-------------------
  | A B C D E F G H 

Turn of: black
Succesful move
d6d5
8 | R _ B Q K B N R 
7 | _ _ _ _ _ P _ P 
6 | P N P _ P _ P _ 
5 | _ P _ P _ _ _ _ 
4 | _ P Q P _ _ _ _ 
3 | _ _ _ _ P N _ P 
2 | P _ P _ _ P P R 
1 | R N B K _ B _ _ 
-------------------
  | A B C D E F G H 

Turn of: white
Succesful move
a2a4
8 | R _ B Q K B N R 
7 | _ _ _ _ _ P _ P 
6 | P N P _ P _ P _ 
5 | _ P _ P _ _ _ _ 
4 | P P Q P _ _ _ _ 
3 | _ _ _ _ P N _ P 
2 | _ _ P _ _ P P R 
1 | R N B K _ B _ _ 
-------------------
  | A B C D E F G H 

Turn of: black
Succesful move
d8d6
8 | R _ B _ K B N R 
7 | _ _ _ _ _ P _ P 
6 | P N P Q P _ P _ 
5 | _ P _ P _ _ _ _ 
4 | P P Q P _ _ _ _ 
3 | _ _ _ _ P N _ P 
2 | _ _ P _ _ P P R 
1 | R N B K _ B _ _ 
-------------------
  | A B C D E F G H 

Turn of: white
Succesful move
c4b3
8 | R _ B _ K B N R 
7 | _ _ _ _ _ P _ P 
6 | P N P Q P _ P _ 
5 | _ P _ P _ _ _ _ 
4 | P P _ P _ _ _ _ 
3 | _ Q _ _ P N _ P 
2 | _ _ P _ _ P P R 
1 | R N B K _ B _ _ 
-------------------
  | A B C D E F G H 

Turn of: black
Succesful move
f7f6
8 | R _ B _ K B N R 
7 | _ _ _ _ _ _ _ P 
6 | P N P Q P P P _ 
5 | _ P _ P _ _ _ _ 
4 | P P _ P _ _ _ _ 
3 | _ Q _ _ P N _ P 
2 | _ _ P _ _ P P R 
1 | R N B K _ B _ _ 
-------------------
  | A B C D E F G H 

We are playing as White
Move history:
d2d4
b7b5
h2h3
a7a6
h1h2
c7c6
d1d3
d7d6
e1d1
b8d7
g1f3
d7b6
d3c4
g7g6
e2e3
e7e6
b2b4
d6d5
a2a4
d8d6
c4b3
f7f6
8 | R _ B _ K B N R 
7 | _ _ _ _ _ _ _ P 
6 | P N P Q P P P _ 
5 | _ P _ P _ _ _ _ 
4 | P P _ P _ _ _ _ 
3 | _ Q _ _ P N _ P 
2 | _ _ P _ _ P P R 
1 | R N B K _ B _ _ 
-------------------
  | A B C D E F G H 

It is white's turn to play.
AI's move: f3g1
Move written: f3g1
[32;1m[Game] [0mPlayer's error code: 0
[32;1m[Game] [0mChecking move validity...
[32;1m[Board] [0mInitializing board...
[32;1m[Board] [0mLoading history file `championship/lizzie-iii-the-terminator/history.csv`...
[32;1m[Board] [0mLoaded 22 move(s).
[32;1m[Board] [0mLoading move file `championship/lizzie-iii-the-terminator/move.csv`...
[32;1m[Board] [0mWhite player is playing f3 to g1.
[32;1m[Board] [0m
[32;1m[Board] [0m    a b c d e f g h 
[32;1m[Board] [0m  -------------------
[32;1m[Board] [0m8 ||[30;1mr[0m| |[30;1mb[0m| |[30;1mK[0m|[30;1mb[0m|[30;1mk[0m|[30;1mr[0m|| 8
[32;1m[Board] [0m  -------------------
[32;1m[Board] [0m7 || |[7;1m [0m| |[7;1m [0m| |[7;1m [0m| |[30;1mp[0m|| 7
[32;1m[Board] [0m  -------------------
[32;1m[Board] [0m6 ||[30;1mp[0m|[30;1mk[0m|[30;1mp[0m|[30;1mQ[0m|[30;1mp[0m|[30;1mp[0m|[30;1mp[0m| || 6
[32;1m[Board] [0m  -------------------
[32;1m[Board] [0m5 || |[30;1mp[0m| |[30;1mp[0m| |[7;1m [0m| |[7;1m [0m|| 5
[32;1m[Board] [0m  -------------------
[32;1m[Board] [0m4 ||[0;1mp[0m|[0;1mp[0m|[7;1m [0m|[0;1mp[0m|[7;1m [0m| |[7;1m [0m| || 4
[32;1m[Board] [0m  -------------------
[32;1m[Board] [0m3 || |[0;1mQ[0m| |[7;1m [0m|[0;1mp[0m|[7;1m [0m| |[0;1mp[0m|| 3
[32;1m[Board] [0m  -------------------
[32;1m[Board] [0m2 ||[7;1m [0m| |[0;1mp[0m| |[7;1m [0m|[0;1mp[0m|[0;1mp[0m|[0;1mr[0m|| 2
[32;1m[Board] [0m  -------------------
[...]

Turn of: black
Succesful move
a2h2
8 | _ R _ _ _ _ _ _ 
7 | _ _ K _ P _ _ _ 
6 | _ _ _ N _ _ _ _ 
5 | _ P _ _ _ _ N _ 
4 | _ _ _ K _ _ P _ 
3 | _ P B _ _ _ _ _ 
2 | _ _ _ _ _ _ _ R 
1 | _ _ _ _ _ _ _ _ 
-------------------
  | A B C D E F G H 

Turn of: white
Succesful move
d4e5
8 | _ R _ _ _ _ _ _ 
7 | _ _ K _ P _ _ _ 
6 | _ _ _ N _ _ _ _ 
5 | _ P _ _ K _ N _ 
4 | _ _ _ _ _ _ P _ 
3 | _ P B _ _ _ _ _ 
2 | _ _ _ _ _ _ _ R 
1 | _ _ _ _ _ _ _ _ 
-------------------
  | A B C D E F G H 

Turn of: black
Succesful move
h2a2
8 | _ R _ _ _ _ _ _ 
7 | _ _ K _ P _ _ _ 
6 | _ _ _ N _ _ _ _ 
5 | _ P _ _ K _ N _ 
4 | _ _ _ _ _ _ P _ 
3 | _ P B _ _ _ _ _ 
2 | R _ _ _ _ _ _ _ 
1 | _ _ _ _ _ _ _ _ 
-------------------
  | A B C D E F G H 

Turn of: white
Succesful move
e5f4
8 | _ R _ _ _ _ _ _ 
7 | _ _ K _ P _ _ _ 
6 | _ _ _ N _ _ _ _ 
5 | _ P _ _ _ _ N _ 
4 | _ _ _ _ _ K P _ 
3 | _ P B _ _ _ _ _ 
2 | R _ _ _ _ _ _ _ 
1 | _ _ _ _ _ _ _ _ 
-------------------
  | A B C D E F G H 

Turn of: black
Succesful move
a2h2
8 | _ R _ _ _ _ _ _ 
7 | _ _ K _ P _ _ _ 
6 | _ _ _ N _ _ _ _ 
5 | _ P _ _ _ _ N _ 
4 | _ _ _ _ _ K P _ 
3 | _ P B _ _ _ _ _ 
2 | _ _ _ _ _ _ _ R 
1 | _ _ _ _ _ _ _ _ 
-------------------
  | A B C D E F G H 

Turn of: white
Succesful move
f4e5
8 | _ R _ _ _ _ _ _ 
7 | _ _ K _ P _ _ _ 
6 | _ _ _ N _ _ _ _ 
5 | _ P _ _ K _ N _ 
4 | _ _ _ _ _ _ P _ 
3 | _ P B _ _ _ _ _ 
2 | _ _ _ _ _ _ _ R 
1 | _ _ _ _ _ _ _ _ 
-------------------
  | A B C D E F G H 

Turn of: black
Succesful move
h2a2
8 | _ R _ _ _ _ _ _ 
7 | _ _ K _ P _ _ _ 
6 | _ _ _ N _ _ _ _ 
5 | _ P _ _ K _ N _ 
4 | _ _ _ _ _ _ P _ 
3 | _ P B _ _ _ _ _ 
2 | R _ _ _ _ _ _ _ 
1 | _ _ _ _ _ _ _ _ 
-------------------
  | A B C D E F G H 

Turn of: white
Succesful move
c3e1
8 | _ R _ _ _ _ _ _ 
7 | _ _ K _ P _ _ _ 
6 | _ _ _ N _ _ _ _ 
5 | _ P _ _ K _ N _ 
4 | _ _ _ _ _ _ P _ 
3 | _ P _ _ _ _ _ _ 
2 | R _ _ _ _ _ _ _ 
1 | _ _ _ _ B _ _ _ 
-------------------
  | A B C D E F G H 

Turn of: black
Succesful move
a2h2
8 | _ R _ _ _ _ _ _ 
7 | _ _ K _ P _ _ _ 
6 | _ _ _ N _ _ _ _ 
5 | _ P _ _ K _ N _ 
4 | _ _ _ _ _ _ P _ 
3 | _ P _ _ _ _ _ _ 
2 | _ _ _ _ _ _ _ R 
1 | _ _ _ _ B _ _ _ 
-------------------
  | A B C D E F G H 

Turn of: white
Succesful move
g5h3
8 | _ R _ _ _ _ _ _ 
7 | _ _ K _ P _ _ _ 
6 | _ _ _ N _ _ _ _ 
5 | _ P _ _ K _ _ _ 
4 | _ _ _ _ _ _ P _ 
3 | _ P _ _ _ _ _ N 
2 | _ _ _ _ _ _ _ R 
1 | _ _ _ _ B _ _ _ 
-------------------
  | A B C D E F G H 

Turn of: black
Succesful move
h2h1
8 | _ R _ _ _ _ _ _ 
7 | _ _ K _ P _ _ _ 
6 | _ _ _ N _ _ _ _ 
5 | _ P _ _ K _ _ _ 
4 | _ _ _ _ _ _ P _ 
3 | _ P _ _ _ _ _ N 
2 | _ _ _ _ _ _ _ _ 
1 | _ _ _ _ B _ _ R 
-------------------
  | A B C D E F G H 

Turn of: white
Succesful move
e5e6
8 | _ R _ _ _ _ _ _ 
7 | _ _ K _ P _ _ _ 
6 | _ _ _ N K _ _ _ 
5 | _ P _ _ _ _ _ _ 
4 | _ _ _ _ _ _ P _ 
3 | _ P _ _ _ _ _ N 
2 | _ _ _ _ _ _ _ _ 
1 | _ _ _ _ B _ _ R 
-------------------
  | A B C D E F G H 

Turn of: black
Succesful move
d6e8
8 | _ R _ _ N _ _ _ 
7 | _ _ K _ P _ _ _ 
6 | _ _ _ _ K _ _ _ 
5 | _ P _ _ _ _ _ _ 
4 | _ _ _ _ _ _ P _ 
3 | _ P _ _ _ _ _ N 
2 | _ _ _ _ _ _ _ _ 
1 | _ _ _ _ B _ _ R 
-------------------
  | A B C D E F G H 

Turn of: white
Succesful move
e6f5
8 | _ R _ _ N _ _ _ 
7 | _ _ K _ P _ _ _ 
6 | _ _ _ _ _ _ _ _ 
5 | _ P _ _ _ K _ _ 
4 | _ _ _ _ _ _ P _ 
3 | _ P _ _ _ _ _ N 
2 | _ _ _ _ _ _ _ _ 
1 | _ _ _ _ B _ _ R 
-------------------
  | A B C D E F G H 

Turn of: black
Succesful move
h1h3
8 | _ R _ _ N _ _ _ 
7 | _ _ K _ P _ _ _ 
6 | _ _ _ _ _ _ _ _ 
5 | _ P _ _ _ K _ _ 
4 | _ _ _ _ _ _ P _ 
3 | _ P _ _ _ _ _ R 
2 | _ _ _ _ _ _ _ _ 
1 | _ _ _ _ B _ _ _ 
-------------------
  | A B C D E F G H 

Turn of: white
Succesful move
f5e4
8 | _ R _ _ N _ _ _ 
7 | _ _ K _ P _ _ _ 
6 | _ _ _ _ _ _ _ _ 
5 | _ P _ _ _ _ _ _ 
4 | _ _ _ _ K _ P _ 
3 | _ P _ _ _ _ _ R 
2 | _ _ _ _ _ _ _ _ 
1 | _ _ _ _ B _ _ _ 
-------------------
  | A B C D E F G H 

Turn of: black
Succesful move
h3h4
8 | _ R _ _ N _ _ _ 
7 | _ _ K _ P _ _ _ 
6 | _ _ _ _ _ _ _ _ 
5 | _ P _ _ _ _ _ _ 
4 | _ _ _ _ K _ P R 
3 | _ P _ _ _ _ _ _ 
2 | _ _ _ _ _ _ _ _ 
1 | _ _ _ _ B _ _ _ 
-------------------
  | A B C D E F G H 

Turn of: white
Succesful move
b8b5
8 | _ _ _ _ N _ _ _ 
7 | _ _ K _ P _ _ _ 
6 | _ _ _ _ _ _ _ _ 
5 | _ R _ _ _ _ _ _ 
4 | _ _ _ _ K _ P R 
3 | _ P _ _ _ _ _ _ 
2 | _ _ _ _ _ _ _ _ 
1 | _ _ _ _ B _ _ _ 
-------------------
  | A B C D E F G H 

Turn of: black
Succesful move
h4h1
8 | _ _ _ _ N _ _ _ 
7 | _ _ K _ P _ _ _ 
6 | _ _ _ _ _ _ _ _ 
5 | _ R _ _ _ _ _ _ 
4 | _ _ _ _ K _ P _ 
3 | _ P _ _ _ _ _ _ 
2 | _ _ _ _ _ _ _ _ 
1 | _ _ _ _ B _ _ R 
-------------------
  | A B C D E F G H 

Turn of: white
Succesful move
b5a5
8 | _ _ _ _ N _ _ _ 
7 | _ _ K _ P _ _ _ 
6 | _ _ _ _ _ _ _ _ 
5 | R _ _ _ _ _ _ _ 
4 | _ _ _ _ K _ P _ 
3 | _ P _ _ _ _ _ _ 
2 | _ _ _ _ _ _ _ _ 
1 | _ _ _ _ B _ _ R 
-------------------
  | A B C D E F G H 

Turn of: black
Succesful move
h1h3
8 | _ _ _ _ N _ _ _ 
7 | _ _ K _ P _ _ _ 
6 | _ _ _ _ _ _ _ _ 
5 | R _ _ _ _ _ _ _ 
4 | _ _ _ _ K _ P _ 
3 | _ P _ _ _ _ _ R 
2 | _ _ _ _ _ _ _ _ 
1 | _ _ _ _ B _ _ _ 
-------------------
  | A B C D E F G H 

Turn of: white
Succesful move
e1f2
8 | _ _ _ _ N _ _ _ 
7 | _ _ K _ P _ _ _ 
6 | _ _ _ _ _ _ _ _ 
5 | R _ _ _ _ _ _ _ 
4 | _ _ _ _ K _ P _ 
3 | _ P _ _ _ _ _ R 
2 | _ _ _ _ _ B _ _ 
1 | _ _ _ _ _ _ _ _ 
-------------------
  | A B C D E F G H 

Turn of: black
Succesful move
c7d6
8 | _ _ _ _ N _ _ _ 
7 | _ _ _ _ P _ _ _ 
6 | _ _ _ K _ _ _ _ 
5 | R _ _ _ _ _ _ _ 
4 | _ _ _ _ K _ P _ 
3 | _ P _ _ _ _ _ R 
2 | _ _ _ _ _ B _ _ 
1 | _ _ _ _ _ _ _ _ 
-------------------
  | A B C D E F G H 

Turn of: white
Succesful move
f2h4
8 | _ _ _ _ N _ _ _ 
7 | _ _ _ _ P _ _ _ 
6 | _ _ _ K _ _ _ _ 
5 | R _ _ _ _ _ _ _ 
4 | _ _ _ _ K _ P B 
3 | _ P _ _ _ _ _ R 
2 | _ _ _ _ _ _ _ _ 
1 | _ _ _ _ _ _ _ _ 
-------------------
  | A B C D E F G H 

Turn of: black
Succesful move
h3d3
8 | _ _ _ _ N _ _ _ 
7 | _ _ _ _ P _ _ _ 
6 | _ _ _ K _ _ _ _ 
5 | R _ _ _ _ _ _ _ 
4 | _ _ _ _ K _ P B 
3 | _ P _ R _ _ _ _ 
2 | _ _ _ _ _ _ _ _ 
1 | _ _ _ _ _ _ _ _ 
-------------------
  | A B C D E F G H 

Turn of: white
Succesful move
g4g5
8 | _ _ _ _ N _ _ _ 
7 | _ _ _ _ P _ _ _ 
6 | _ _ _ K _ _ _ _ 
5 | R _ _ _ _ _ P _ 
4 | _ _ _ _ K _ _ B 
3 | _ P _ R _ _ _ _ 
2 | _ _ _ _ _ _ _ _ 
1 | _ _ _ _ _ _ _ _ 
-------------------
  | A B C D E F G H 

Turn of: black
Succesful move
d6d7
8 | _ _ _ _ N _ _ _ 
7 | _ _ _ K P _ _ _ 
6 | _ _ _ _ _ _ _ _ 
5 | R _ _ _ _ _ P _ 
4 | _ _ _ _ K _ _ B 
3 | _ P _ R _ _ _ _ 
2 | _ _ _ _ _ _ _ _ 
1 | _ _ _ _ _ _ _ _ 
-------------------
  | A B C D E F G H 

Turn of: white
Succesful move
a5c5
8 | _ _ _ _ N _ _ _ 
7 | _ _ _ K P _ _ _ 
6 | _ _ _ _ _ _ _ _ 
5 | _ _ R _ _ _ P _ 
4 | _ _ _ _ K _ _ B 
3 | _ P _ R _ _ _ _ 
2 | _ _ _ _ _ _ _ _ 
1 | _ _ _ _ _ _ _ _ 
-------------------
  | A B C D E F G H 

Turn of: black
Succesful move
d3c3
8 | _ _ _ _ N _ _ _ 
7 | _ _ _ K P _ _ _ 
6 | _ _ _ _ _ _ _ _ 
5 | _ _ R _ _ _ P _ 
4 | _ _ _ _ K _ _ B 
3 | _ P R _ _ _ _ _ 
2 | _ _ _ _ _ _ _ _ 
1 | _ _ _ _ _ _ _ _ 
-------------------
  | A B C D E F G H 

Turn of: white
Succesful move
c5e5
8 | _ _ _ _ N _ _ _ 
7 | _ _ _ K P _ _ _ 
6 | _ _ _ _ _ _ _ _ 
5 | _ _ _ _ R _ P _ 
4 | _ _ _ _ K _ _ B 
3 | _ P R _ _ _ _ _ 
2 | _ _ _ _ _ _ _ _ 
1 | _ _ _ _ _ _ _ _ 
-------------------
  | A B C D E F G H 

Turn of: black
Succesful move
c3c4
8 | _ _ _ _ N _ _ _ 
7 | _ _ _ K P _ _ _ 
6 | _ _ _ _ _ _ _ _ 
5 | _ _ _ _ R _ P _ 
4 | _ _ R _ K _ _ B 
3 | _ P _ _ _ _ _ _ 
2 | _ _ _ _ _ _ _ _ 
1 | _ _ _ _ _ _ _ _ 
-------------------
  | A B C D E F G H 

Turn of: white
Succesful move
e4d5
8 | _ _ _ _ N _ _ _ 
7 | _ _ _ K P _ _ _ 
6 | _ _ _ _ _ _ _ _ 
5 | _ _ _ K R _ P _ 
4 | _ _ R _ _ _ _ B 
3 | _ P _ _ _ _ _ _ 
2 | _ _ _ _ _ _ _ _ 
1 | _ _ _ _ _ _ _ _ 
-------------------
  | A B C D E F G H 

Turn of: black
Succesful move
c4c5
8 | _ _ _ _ N _ _ _ 
7 | _ _ _ K P _ _ _ 
6 | _ _ _ _ _ _ _ _ 
5 | _ _ R K R _ P _ 
4 | _ _ _ _ _ _ _ B 
3 | _ P _ _ _ _ _ _ 
2 | _ _ _ _ _ _ _ _ 
1 | _ _ _ _ _ _ _ _ 
-------------------
  | A B C D E F G H 

Turn of: white
Succesful move
d5e4
8 | _ _ _ _ N _ _ _ 
7 | _ _ _ K P _ _ _ 
6 | _ _ _ _ _ _ _ _ 
5 | _ _ R _ R _ P _ 
4 | _ _ _ _ K _ _ B 
3 | _ P _ _ _ _ _ _ 
2 | _ _ _ _ _ _ _ _ 
1 | _ _ _ _ _ _ _ _ 
-------------------
  | A B C D E F G H 

Turn of: black
Succesful move
c5c8
8 | _ _ R _ N _ _ _ 
7 | _ _ _ K P _ _ _ 
6 | _ _ _ _ _ _ _ _ 
5 | _ _ _ _ R _ P _ 
4 | _ _ _ _ K _ _ B 
3 | _ P _ _ _ _ _ _ 
2 | _ _ _ _ _ _ _ _ 
1 | _ _ _ _ _ _ _ _ 
-------------------
  | A B C D E F G H 

Turn of: white
Succesful move
e4d3
8 | _ _ R _ N _ _ _ 
7 | _ _ _ K P _ _ _ 
6 | _ _ _ _ _ _ _ _ 
5 | _ _ _ _ R _ P _ 
4 | _ _ _ _ _ _ _ B 
3 | _ P _ K _ _ _ _ 
2 | _ _ _ _ _ _ _ _ 
1 | _ _ _ _ _ _ _ _ 
-------------------
  | A B C D E F G H 

Turn of: black
Succesful move
d7c7
8 | _ _ R _ N _ _ _ 
7 | _ _ K _ P _ _ _ 
6 | _ _ _ _ _ _ _ _ 
5 | _ _ _ _ R _ P _ 
4 | _ _ _ _ _ _ _ B 
3 | _ P _ K _ _ _ _ 
2 | _ _ _ _ _ _ _ _ 
1 | _ _ _ _ _ _ _ _ 
-------------------
  | A B C D E F G H 

Turn of: white
Succesful move
e5d5
8 | _ _ R _ N _ _ _ 
7 | _ _ K _ P _ _ _ 
6 | _ _ _ _ _ _ _ _ 
5 | _ _ _ R _ _ P _ 
4 | _ _ _ _ _ _ _ B 
3 | _ P _ K _ _ _ _ 
2 | _ _ _ _ _ _ _ _ 
1 | _ _ _ _ _ _ _ _ 
-------------------
  | A B C D E F G H 

Turn of: black
Succesful move
c8b8
8 | _ R _ _ N _ _ _ 
7 | _ _ K _ P _ _ _ 
6 | _ _ _ _ _ _ _ _ 
5 | _ _ _ R _ _ P _ 
4 | _ _ _ _ _ _ _ B 
3 | _ P _ K _ _ _ _ 
2 | _ _ _ _ _ _ _ _ 
1 | _ _ _ _ _ _ _ _ 
-------------------
  | A B C D E F G H 

Turn of: white
Succesful move
d3e2
8 | _ R _ _ N _ _ _ 
7 | _ _ K _ P _ _ _ 
6 | _ _ _ _ _ _ _ _ 
5 | _ _ _ R _ _ P _ 
4 | _ _ _ _ _ _ _ B 
3 | _ P _ _ _ _ _ _ 
2 | _ _ _ _ K _ _ _ 
1 | _ _ _ _ _ _ _ _ 
-------------------
  | A B C D E F G H 

Turn of: black
Succesful move
e8d6
8 | _ R _ _ _ _ _ _ 
7 | _ _ K _ P _ _ _ 
6 | _ _ _ N _ _ _ _ 
5 | _ _ _ R _ _ P _ 
4 | _ _ _ _ _ _ _ B 
3 | _ P _ _ _ _ _ _ 
2 | _ _ _ _ K _ _ _ 
1 | _ _ _ _ _ _ _ _ 
-------------------
  | A B C D E F G H 

Turn of: white
Succesful move
e2d3
8 | _ R _ _ _ _ _ _ 
7 | _ _ K _ P _ _ _ 
6 | _ _ _ N _ _ _ _ 
5 | _ _ _ R _ _ P _ 
4 | _ _ _ _ _ _ _ B 
3 | _ P _ K _ _ _ _ 
2 | _ _ _ _ _ _ _ _ 
1 | _ _ _ _ _ _ _ _ 
-------------------
  | A B C D E F G H 

Turn of: black
Succesful move
d6f5
8 | _ R _ _ _ _ _ _ 
7 | _ _ K _ P _ _ _ 
6 | _ _ _ _ _ _ _ _ 
5 | _ _ _ R _ N P _ 
4 | _ _ _ _ _ _ _ B 
3 | _ P _ K _ _ _ _ 
2 | _ _ _ _ _ _ _ _ 
1 | _ _ _ _ _ _ _ _ 
-------------------
  | A B C D E F G H 

Turn of: white
Succesful move
d5e5
8 | _ R _ _ _ _ _ _ 
7 | _ _ K _ P _ _ _ 
6 | _ _ _ _ _ _ _ _ 
5 | _ _ _ _ R N P _ 
4 | _ _ _ _ _ _ _ B 
3 | _ P _ K _ _ _ _ 
2 | _ _ _ _ _ _ _ _ 
1 | _ _ _ _ _ _ _ _ 
-------------------
  | A B C D E F G H 

Turn of: black
Succesful move
c7c6
8 | _ R _ _ _ _ _ _ 
7 | _ _ _ _ P _ _ _ 
6 | _ _ K _ _ _ _ _ 
5 | _ _ _ _ R N P _ 
4 | _ _ _ _ _ _ _ B 
3 | _ P _ K _ _ _ _ 
2 | _ _ _ _ _ _ _ _ 
1 | _ _ _ _ _ _ _ _ 
-------------------
  | A B C D E F G H 

Turn of: white
Succesful move
g5g6
8 | _ R _ _ _ _ _ _ 
7 | _ _ _ _ P _ _ _ 
6 | _ _ K _ _ _ P _ 
5 | _ _ _ _ R N _ _ 
4 | _ _ _ _ _ _ _ B 
3 | _ P _ K _ _ _ _ 
2 | _ _ _ _ _ _ _ _ 
1 | _ _ _ _ _ _ _ _ 
-------------------
  | A B C D E F G H 

Turn of: black
Succesful move
f5d4
8 | _ R _ _ _ _ _ _ 
7 | _ _ _ _ P _ _ _ 
6 | _ _ K _ _ _ P _ 
5 | _ _ _ _ R _ _ _ 
4 | _ _ _ N _ _ _ B 
3 | _ P _ K _ _ _ _ 
2 | _ _ _ _ _ _ _ _ 
1 | _ _ _ _ _ _ _ _ 
-------------------
  | A B C D E F G H 

Turn of: white
Succesful move
e5e6
8 | _ R _ _ _ _ _ _ 
7 | _ _ _ _ P _ _ _ 
6 | _ _ K _ R _ P _ 
5 | _ _ _ _ _ _ _ _ 
4 | _ _ _ N _ _ _ B 
3 | _ P _ K _ _ _ _ 
2 | _ _ _ _ _ _ _ _ 
1 | _ _ _ _ _ _ _ _ 
-------------------
  | A B C D E F G H 

Turn of: black
Succesful move
c6c7
8 | _ R _ _ _ _ _ _ 
7 | _ _ K _ P _ _ _ 
6 | _ _ _ _ R _ P _ 
5 | _ _ _ _ _ _ _ _ 
4 | _ _ _ N _ _ _ B 
3 | _ P _ K _ _ _ _ 
2 | _ _ _ _ _ _ _ _ 
1 | _ _ _ _ _ _ _ _ 
-------------------
  | A B C D E F G H 

Turn of: white
Succesful move
d3c4
8 | _ R _ _ _ _ _ _ 
7 | _ _ K _ P _ _ _ 
6 | _ _ _ _ R _ P _ 
5 | _ _ _ _ _ _ _ _ 
4 | _ _ K N _ _ _ B 
3 | _ P _ _ _ _ _ _ 
2 | _ _ _ _ _ _ _ _ 
1 | _ _ _ _ _ _ _ _ 
-------------------
  | A B C D E F G H 

Turn of: black
Succesful move
b8e8
8 | _ _ _ _ R _ _ _ 
7 | _ _ K _ P _ _ _ 
6 | _ _ _ _ R _ P _ 
5 | _ _ _ _ _ _ _ _ 
4 | _ _ K N _ _ _ B 
3 | _ P _ _ _ _ _ _ 
2 | _ _ _ _ _ _ _ _ 
1 | _ _ _ _ _ _ _ _ 
-------------------
  | A B C D E F G H 

Turn of: white
Succesful move
c4c3
8 | _ _ _ _ R _ _ _ 
7 | _ _ K _ P _ _ _ 
6 | _ _ _ _ R _ P _ 
5 | _ _ _ _ _ _ _ _ 
4 | _ _ _ N _ _ _ B 
3 | _ P K _ _ _ _ _ 
2 | _ _ _ _ _ _ _ _ 
1 | _ _ _ _ _ _ _ _ 
-------------------
  | A B C D E F G H 

Turn of: black
Succesful move
d4f5
8 | _ _ _ _ R _ _ _ 
7 | _ _ K _ P _ _ _ 
6 | _ _ _ _ R _ P _ 
5 | _ _ _ _ _ N _ _ 
4 | _ _ _ _ _ _ _ B 
3 | _ P K _ _ _ _ _ 
2 | _ _ _ _ _ _ _ _ 
1 | _ _ _ _ _ _ _ _ 
-------------------
  | A B C D E F G H 

Turn of: white
Succesful move
e6e3
8 | _ _ _ _ R _ _ _ 
7 | _ _ K _ P _ _ _ 
6 | _ _ _ _ _ _ P _ 
5 | _ _ _ _ _ N _ _ 
4 | _ _ _ _ _ _ _ B 
3 | _ P K _ R _ _ _ 
2 | _ _ _ _ _ _ _ _ 
1 | _ _ _ _ _ _ _ _ 
-------------------
  | A B C D E F G H 

Turn of: black
Succesful move
f5h4
8 | _ _ _ _ R _ _ _ 
7 | _ _ K _ P _ _ _ 
6 | _ _ _ _ _ _ P _ 
5 | _ _ _ _ _ _ _ _ 
4 | _ _ _ _ _ _ _ N 
3 | _ P K _ R _ _ _ 
2 | _ _ _ _ _ _ _ _ 
1 | _ _ _ _ _ _ _ _ 
-------------------
  | A B C D E F G H 

Turn of: white
Succesful move
c3c4
8 | _ _ _ _ R _ _ _ 
7 | _ _ K _ P _ _ _ 
6 | _ _ _ _ _ _ P _ 
5 | _ _ _ _ _ _ _ _ 
4 | _ _ K _ _ _ _ N 
3 | _ P _ _ R _ _ _ 
2 | _ _ _ _ _ _ _ _ 
1 | _ _ _ _ _ _ _ _ 
-------------------
  | A B C D E F G H 

Turn of: black
Succesful move
h4g2
8 | _ _ _ _ R _ _ _ 
7 | _ _ K _ P _ _ _ 
6 | _ _ _ _ _ _ P _ 
5 | _ _ _ _ _ _ _ _ 
4 | _ _ K _ _ _ _ _ 
3 | _ P _ _ R _ _ _ 
2 | _ _ _ _ _ _ N _ 
1 | _ _ _ _ _ _ _ _ 
-------------------
  | A B C D E F G H 

Turn of: white
Succesful move
e3e5
8 | _ _ _ _ R _ _ _ 
7 | _ _ K _ P _ _ _ 
6 | _ _ _ _ _ _ P _ 
5 | _ _ _ _ R _ _ _ 
4 | _ _ K _ _ _ _ _ 
3 | _ P _ _ _ _ _ _ 
2 | _ _ _ _ _ _ N _ 
1 | _ _ _ _ _ _ _ _ 
-------------------
  | A B C D E F G H 

Turn of: black
Succesful move
g2e1
8 | _ _ _ _ R _ _ _ 
7 | _ _ K _ P _ _ _ 
6 | _ _ _ _ _ _ P _ 
5 | _ _ _ _ R _ _ _ 
4 | _ _ K _ _ _ _ _ 
3 | _ P _ _ _ _ _ _ 
2 | _ _ _ _ _ _ _ _ 
1 | _ _ _ _ N _ _ _ 
-------------------
  | A B C D E F G H 

Turn of: white
Succesful move
e5e2
8 | _ _ _ _ R _ _ _ 
7 | _ _ K _ P _ _ _ 
6 | _ _ _ _ _ _ P _ 
5 | _ _ _ _ _ _ _ _ 
4 | _ _ K _ _ _ _ _ 
3 | _ P _ _ _ _ _ _ 
2 | _ _ _ _ R _ _ _ 
1 | _ _ _ _ N _ _ _ 
-------------------
  | A B C D E F G H 

Turn of: black
Succesful move
e1c2
8 | _ _ _ _ R _ _ _ 
7 | _ _ K _ P _ _ _ 
6 | _ _ _ _ _ _ P _ 
5 | _ _ _ _ _ _ _ _ 
4 | _ _ K _ _ _ _ _ 
3 | _ P _ _ _ _ _ _ 
2 | _ _ N _ R _ _ _ 
1 | _ _ _ _ _ _ _ _ 
-------------------
  | A B C D E F G H 

Turn of: white
Succesful move
e2h2
8 | _ _ _ _ R _ _ _ 
7 | _ _ K _ P _ _ _ 
6 | _ _ _ _ _ _ P _ 
5 | _ _ _ _ _ _ _ _ 
4 | _ _ K _ _ _ _ _ 
3 | _ P _ _ _ _ _ _ 
2 | _ _ N _ _ _ _ R 
1 | _ _ _ _ _ _ _ _ 
-------------------
  | A B C D E F G H 

Turn of: black
Succesful move
e8h8
8 | _ _ _ _ _ _ _ R 
7 | _ _ K _ P _ _ _ 
6 | _ _ _ _ _ _ P _ 
5 | _ _ _ _ _ _ _ _ 
4 | _ _ K _ _ _ _ _ 
3 | _ P _ _ _ _ _ _ 
2 | _ _ N _ _ _ _ R 
1 | _ _ _ _ _ _ _ _ 
-------------------
  | A B C D E F G H 

Turn of: white
Succesful move
g6g7
8 | _ _ _ _ _ _ _ R 
7 | _ _ K _ P _ P _ 
6 | _ _ _ _ _ _ _ _ 
5 | _ _ _ _ _ _ _ _ 
4 | _ _ K _ _ _ _ _ 
3 | _ P _ _ _ _ _ _ 
2 | _ _ N _ _ _ _ R 
1 | _ _ _ _ _ _ _ _ 
-------------------
  | A B C D E F G H 

Turn of: black
Succesful move
h8h2
8 | _ _ _ _ _ _ _ _ 
7 | _ _ K _ P _ P _ 
6 | _ _ _ _ _ _ _ _ 
5 | _ _ _ _ _ _ _ _ 
4 | _ _ K _ _ _ _ _ 
3 | _ P _ _ _ _ _ _ 
2 | _ _ N _ _ _ _ R 
1 | _ _ _ _ _ _ _ _ 
-------------------
  | A B C D E F G H 

We are playing as White
Move history:
d2d4
b7b5
h2h3
a7a6
h1h2
c7c6
d1d3
d7d6
e1d1
b8d7
g1f3
d7b6
d3c4
g7g6
e2e3
e7e6
b2b4
d6d5
a2a4
d8d6
c4b3
f7f6
f3g1
e8e7
d1e1
d6e5
b1d2
c8d7
b3b1
g6g5
d4e5
f6f5
b1a2
b6a4
a2b2
c6c5
d2b3
e7d8
g2g4
a8b8
e3e4
a6a5
f1c4
d5c4
e1f1
h7h6
g4f5
d8e7
b2c3
e6f5
f1g2
d7c6
a1a3
g5g4
c3e1
e7f7
b3d2
c6d7
e4f5
b8e8
d2f3
e8e7
g2g3
a4b2
c1g5
d7e8
h3g4
b2d3
f5f6
g8f6
e1c1
f7g7
g3h4
e8c6
a3b3
d3f4
f3d4
a5b4
g5f4
e7b7
d4c6
f6h5
h4h3
h5f6
c6e7
c4b3
c1a1
g7f7
a1c1
f6e4
c1a3
e4d2
c2c4
d2c4
a3a1
f7e7
a1b2
c4b6
h3g3
b6a8
b2a3
e7d7
a3b4
c5b4
h2h5
b7b8
g3g2
d7d8
g2f1
d8c8
f1e1
a8b6
f4g3
c8b7
g3f4
f8e7
g1f3
b7c6
h5h4
c6d7
f3g1
d7c6
f4h6
h8g8
e5e6
g8g5
h4h3
b8c8
e1e2
c8f8
h3d3
e7d8
h6g5
d8f6
d3d2
f6e5
d2d8
f8f2
e2e3
c6c7
d8g8
f2h2
g5e7
b6c4
e3f3
h2f2
f3e4
c4b2
e4e5
b2d3
e5d4
f2g2
e7b4
d3f2
g8a8
f2e4
a8a1
g2b2
g1h3
c7c8
h3g5
b2e2
a1a8
c8b7
a8f8
e4d6
e6e7
e2h2
f8h8
h2a2
h8b8
b7c7
b4c3
a2h2
d4e5
h2a2
e5f4
a2h2
f4e5
h2a2
c3e1
a2h2
g5h3
h2h1
e5e6
d6e8
e6f5
h1h3
f5e4
h3h4
b8b5
h4h1
b5a5
h1h3
e1f2
c7d6
f2h4
h3d3
g4g5
d6d7
a5c5
d3c3
c5e5
c3c4
e4d5
c4c5
d5e4
c5c8
e4d3
d7c7
e5d5
c8b8
d3e2
e8d6
e2d3
d6f5
d5e5
c7c6
g5g6
f5d4
e5e6
c6c7
d3c4
b8e8
c4c3
d4f5
e6e3
f5h4
c3c4
h4g2
e3e5
g2e1
e5e2
e1c2
e2h2
e8h8
g6g7
h8h2
8 | _ _ _ _ _ _ _ _ 
7 | _ _ K _ P _ P _ 
6 | _ _ _ _ _ _ _ _ 
5 | _ _ _ _ _ _ _ _ 
4 | _ _ K _ _ _ _ _ 
3 | _ P _ _ _ _ _ _ 
2 | _ _ N _ _ _ _ R 
1 | _ _ _ _ _ _ _ _ 
-------------------
  | A B C D E F G H 

It is white's turn to play.
AI's move: e7e8k
Move written: e7e8k
[32;1m[Game] [0mPlayer's error code: 0
[32;1m[Game] [0mChecking move validity...
[32;1m[Board] [0mInitializing board...
[32;1m[Board] [0mLoading history file `championship/lizzie-iii-the-terminator/history.csv`...
[32;1m[Board] [0mLoaded 238 move(s).
[32;1m[Board] [0mLoading move file `championship/lizzie-iii-the-terminator/move.csv`...
[32;1m[Board] [0mWhite player is playing e7 to e8.
[32;1m[Board] [0mPromoting a White Pawn into a Knight
[32;1m[Board] [0m
[32;1m[Board] [0m    a b c d e f g h 
[32;1m[Board] [0m  -------------------
[32;1m[Board] [0m8 ||[7;1m [0m| |[7;1m [0m| |[0;1mk[0m| |[7;1m [0m| || 8
[32;1m[Board] [0m  -------------------
[32;1m[Board] [0m7 || |[7;1m [0m|[30;1mK[0m|[7;1m [0m| |[7;1m [0m|[0;1mp[0m|[7;1m [0m|| 7
[32;1m[Board] [0m  -------------------
[32;1m[Board] [0m6 ||[7;1m [0m| |[7;1m [0m| |[7;1m [0m| |[7;1m [0m| || 6
[32;1m[Board] [0m  -------------------
[32;1m[Board] [0m5 || |[7;1m [0m| |[7;1m [0m| |[7;1m [0m| |[7;1m [0m|| 5
[32;1m[Board] [0m  -------------------
[32;1m[Board] [0m4 ||[7;1m [0m| |[0;1mK[0m| |[7;1m [0m| |[7;1m [0m| || 4
[32;1m[Board] [0m  -------------------
[32;1m[Board] [0m3 || |[30;1mp[0m| |[7;1m [0m| |[7;1m [0m| |[7;1m [0m|| 3
[32;1m[Board] [0m  -------------------
[32;1m[Board] [0m2 ||[7;1m [0m| |[30;1mk[0m| |[7;1m [0m| |[7;1m [0m|[30;1mr[0m|| 2
[32;1m[Board] [0m  -------------------
[32;1m[Board] [0m1 || |[7;1m [0m| |[7;1m [0m| |[7;1m [0m| |[7;1m [0m|| 1
[32;1m[Board] [0m  -------------------
[32;1m[Board] [0m    a b c d e f g h
[32;1m[Board] [0m
[32;1m[Referee] [0mThis is the turn of the Black player...
[32;1m[Board] [0m[33;1m[WARNING][0m [5;1mBlack King in check![0m
[32;1m[Board] [0m[33;1m[WARNING][0m    Threatened by White Knight (e8)
[32;1m[Game] [0mPlayer's error code: 0
[32;1m[Game] [0mChecking move validity...
[32;1m[Board] [0mInitializing board...
[32;1m[Board] [0mLoading history file `championship/lizzie-iii-the-terminator/history.csv`...
[32;1m[Board] [0mLoaded 239 move(s).
[32;1m[Board] [0mLoading move file `championship/lizzie-iii-the-terminator/move.csv`...
[32;1m[Board] [0mBlack player is playing c2 to b4.
[32;1m[Board] [0m[31;1m[ERROR][0m Proposed move from (c2) to (b4) puts the King in check :(
[32;1m[Board] [0m[31;1m[ERROR][0m Black Knight (c2) cannot reach its destination (b4) :(
[32;1m[Referee] [0mInvalid move (code: -7) :(
[32;1m[Game] [0mBlack player has lost on illegal move.
