[32;1m[Board] [0mInitializing board...
[32;1m[Board] [0m
[32;1m[Board] [0m    a b c d e f g h 
[32;1m[Board] [0m  -------------------
[32;1m[Board] [0m8 ||[30;1mr[0m|[30;1mk[0m|[30;1mb[0m|[30;1mQ[0m|[30;1mK[0m|[30;1mb[0m|[30;1mk[0m|[30;1mr[0m|| 8
[32;1m[Board] [0m  -------------------
[32;1m[Board] [0m7 ||[30;1mp[0m|[30;1mp[0m|[30;1mp[0m|[30;1mp[0m|[30;1mp[0m|[30;1mp[0m|[30;1mp[0m|[30;1mp[0m|| 7
[32;1m[Board] [0m  -------------------
[32;1m[Board] [0m6 ||[7;1m [0m| |[7;1m [0m| |[7;1m [0m| |[7;1m [0m| || 6
[32;1m[Board] [0m  -------------------
[32;1m[Board] [0m5 || |[7;1m [0m| |[7;1m [0m| |[7;1m [0m| |[7;1m [0m|| 5
[32;1m[Board] [0m  -------------------
[32;1m[Board] [0m4 ||[7;1m [0m| |[7;1m [0m| |[7;1m [0m| |[7;1m [0m| || 4
[32;1m[Board] [0m  -------------------
[32;1m[Board] [0m3 || |[7;1m [0m| |[7;1m [0m| |[7;1m [0m| |[7;1m [0m|| 3
[32;1m[Board] [0m  -------------------
[32;1m[Board] [0m2 ||[0;1mp[0m|[0;1mp[0m|[0;1mp[0m|[0;1mp[0m|[0;1mp[0m|[0;1mp[0m|[0;1mp[0m|[0;1mp[0m|| 2
[32;1m[Board] [0m  -------------------
[32;1m[Board] [0m1 ||[0;1mr[0m|[0;1mk[0m|[0;1mb[0m|[0;1mQ[0m|[0;1mK[0m|[0;1mb[0m|[0;1mk[0m|[0;1mr[0m|| 1
[32;1m[Board] [0m  -------------------
[32;1m[Board] [0m    a b c d e f g h
[32;1m[Board] [0m
[32;1m[Referee] [0mThis is the turn of the White player...
Input file: championship/lizzie-iii-chess-ai/history.csv
Output file: championship/lizzie-iii-chess-ai/move.csv
We are playing as White
8 | [1;31mR[0m [1;31mN[0m [1;31mB[0m [1;31mQ[0m [1;31mK[0m [1;31mB[0m [1;31mN[0m [1;31mR[0m 
7 | [1;31mP[0m [1;31mP[0m [1;31mP[0m [1;31mP[0m [1;31mP[0m [1;31mP[0m [1;31mP[0m [1;31mP[0m 
6 | [1;30m_[0m [1;30m_[0m [1;30m_[0m [1;30m_[0m [1;30m_[0m [1;30m_[0m [1;30m_[0m [1;30m_[0m 
5 | [1;30m_[0m [1;30m_[0m [1;30m_[0m [1;30m_[0m [1;30m_[0m [1;30m_[0m [1;30m_[0m [1;30m_[0m 
4 | [1;30m_[0m [1;30m_[0m [1;30m_[0m [1;30m_[0m [1;30m_[0m [1;30m_[0m [1;30m_[0m [1;30m_[0m 
3 | [1;30m_[0m [1;30m_[0m [1;30m_[0m [1;30m_[0m [1;30m_[0m [1;30m_[0m [1;30m_[0m [1;30m_[0m 
2 | [1;32mP[0m [1;32mP[0m [1;32mP[0m [1;32mP[0m [1;32mP[0m [1;32mP[0m [1;32mP[0m [1;32mP[0m 
1 | [1;32mR[0m [1;32mN[0m [1;32mB[0m [1;32mQ[0m [1;32mK[0m [1;32mB[0m [1;32mN[0m [1;32mR[0m 
-------------------
  | A B C D E F G H 

It is white's turn to play.
Best move: e2e4
Evaluation: 90
Node count: 25077

Total time: 1053.21 ms
[32;1m[Game] [0mPlayer's error code: 0
[32;1m[Game] [0mChecking move validity...
[32;1m[Board] [0mInitializing board...
[32;1m[Board] [0mLoading history file `championship/lizzie-iii-chess-ai/history.csv`...
[32;1m[Board] [0mLoaded 0 move(s).
[32;1m[Board] [0mLoading move file `championship/lizzie-iii-chess-ai/move.csv`...
[32;1m[Board] [0mWhite player is playing e2 to e4.
[32;1m[Board] [0m
[32;1m[Board] [0m    a b c d e f g h 
[32;1m[Board] [0m  -------------------
[32;1m[Board] [0m8 ||[30;1mr[0m|[30;1mk[0m|[30;1mb[0m|[30;1mQ[0m|[30;1mK[0m|[30;1mb[0m|[30;1mk[0m|[30;1mr[0m|| 8
[32;1m[Board] [0m  -------------------
[32;1m[Board] [0m7 ||[30;1mp[0m|[30;1mp[0m|[30;1mp[0m|[30;1mp[0m|[30;1mp[0m|[30;1mp[0m|[30;1mp[0m|[30;1mp[0m|| 7
[32;1m[Board] [0m  -------------------
[32;1m[Board] [0m6 ||[7;1m [0m| |[7;1m [0m| |[7;1m [0m| |[7;1m [0m| || 6
[32;1m[Board] [0m  -------------------
[32;1m[Board] [0m5 || |[7;1m [0m| |[7;1m [0m| |[7;1m [0m| |[7;1m [0m|| 5
[32;1m[Board] [0m  -------------------
[32;1m[Board] [0m4 ||[7;1m [0m| |[7;1m [0m| |[0;1mp[0m| |[7;1m [0m| || 4
[32;1m[Board] [0m  -------------------
[32;1m[Board] [0m3 || |[7;1m [0m| |[7;1m [0m| |[7;1m [0m| |[7;1m [0m|| 3
[32;1m[Board] [0m  -------------------
[32;1m[Board] [0m2 ||[0;1mp[0m|[0;1mp[0m|[0;1mp[0m|[0;1mp[0m|[7;1m [0m|[0;1mp[0m|[0;1mp[0m|[0;1mp[0m|| 2
[32;1m[Board] [0m  -------------------
[32;1m[Board] [0m1 ||[0;1mr[0m|[0;1mk[0m|[0;1mb[0m|[0;1mQ[0m|[0;1mK[0m|[0;1mb[0m|[0;1mk[0m|[0;1mr[0m|| 1
[32;1m[Board] [0m  -------------------
[32;1m[Board] [0m    a b c d e f g h
[32;1m[Board] [0m
[32;1m[Referee] [0mThis is the turn of the Black player...
5    a    b    c    d    e    f    g    h
  +----+----+----+----+----+----+----+----+
8 | mR | mN | mB | mQ | mK | mB | mN | mR | 8
  +----+----+----+----+----+----+----+----+
7 | mP | mP | mP | mP | mP | mP | mP | mP | 7
  +----+----+----+----+----+----+----+----+
6 |    |    |    |    |    |    |    |    | 6
  +----+----+----+----+----+----+----+----+
5 |    |    |    |    |    |    |    |    | 5
  +----+----+----+----+----+----+----+----+
4 |    |    |    |    | oP |    |    |    | 4
  +----+----+----+----+----+----+----+----+
3 |    |    |    |    |    |    |    |    | 3
  +----+----+----+----+----+----+----+----+
2 | oP | oP | oP | oP |    | oP | oP | oP | 2
  +----+----+----+----+----+----+----+----+
1 | oR | oN | oB | oQ | oK | oB | oN | oR | 1
  +----+----+----+----+----+----+----+----+
    a    b    c    d    e    f    g   h

    a    b    c    d    e    f    g    h
  +----+----+----+----+----+----+----+----+
8 | mR | mN | mB | mQ | mK | mB | mN | mR | 8
  +----+----+----+----+----+----+----+----+
7 | mP | mP | mP | mP | mP | mP | mP | mP | 7
  +----+----+----+----+----+----+----+----+
6 |    |    |    |    |    |    |    |    | 6
  +----+----+----+----+----+----+----+----+
5 |    |    |    |    |    |    |    |    | 5
  +----+----+----+----+----+----+----+----+
4 |    |    |    |    | oP |    |    |    | 4
  +----+----+----+----+----+----+----+----+
3 |    |    |    |    |    |    |    |    | 3
  +----+----+----+----+----+----+----+----+
2 | oP | oP | oP | oP |    | oP | oP | oP | 2
  +----+----+----+----+----+----+----+----+
1 | oR | oN | oB | oQ | oK | oB | oN | oR | 1
  +----+----+----+----+----+----+----+----+
    a    b    c    d    e    f    g   h

random move: b8a6
Move written to championship/lizzie-iii-chess-ai/move.csv successfully!
eval: -222
Result
Move: e4e3, Score: -20
Move: e1e2, Score: -30
Move: d1h5, Score: -40
Move: d1e2, Score: -45
Move: b1a3, Score: -50
Move: g1h3, Score: -50
Move: f1e2, Score: -50
Move: f1a6, Score: -50
Move: d1g4, Score: -50
Move: d1f3, Score: -55
Move: f1d3, Score: -70
Move: f1c4, Score: -70
Move: f1b5, Score: -70
Move: g1e2, Score: -80
Move: b1c3, Score: -90
Move: g1f3, Score: -90
[32;1m[Game] [0mPlayer's error code: 0
[32;1m[Game] [0mChecking move validity...
[32;1m[Board] [0mInitializing board...
[32;1m[Board] [0mLoading history file `championship/lizzie-iii-chess-ai/history.csv`...
[32;1m[Board] [0mLoaded 1 move(s).
[32;1m[Board] [0mLoading move file `championship/lizzie-iii-chess-ai/move.csv`...
[32;1m[Board] [0mBlack player is playing b8 to a6.
[32;1m[Board] [0m
[32;1m[Board] [0m    a b c d e f g h 
[32;1m[Board] [0m  -------------------
[32;1m[Board] [0m8 ||[30;1mr[0m| |[30;1mb[0m|[30;1mQ[0m|[30;1mK[0m|[30;1mb[0m|[30;1mk[0m|[30;1mr[0m|| 8
[32;1m[Board] [0m  -------------------
[32;1m[Board] [0m7 ||[30;1mp[0m|[30;1mp[0m|[30;1mp[0m|[30;1mp[0m|[30;1mp[0m|[30;1mp[0m|[30;1mp[0m|[30;1mp[0m|| 7
[32;1m[Board] [0m  -------------------
[32;1m[Board] [0m6 ||[30;1mk[0m| |[7;1m [0m| |[7;1m [0m| |[7;1m [0m| || 6
[32;1m[Board] [0m  -------------------
[32;1m[Board] [0m5 || |[7;1m [0m| |[7;1m [0m| |[7;1m [0m| |[7;1m [0m|| 5
[32;1m[Board] [0m  -------------------
[32;1m[Board] [0m4 ||[7;1m [0m| |[7;1m [0m| |[0;1mp[0m| |[7;1m [0m| || 4
[32;1m[Board] [0m  -------------------
[32;1m[Board] [0m3 || |[7;1m [0m| |[7;1m [0m| |[7;1m [0m| |[7;1m [0m|| 3
[32;1m[Board] [0m  -------------------
[32;1m[Board] [0m2 ||[0;1mp[0m|[0;1mp[0m|[0;1mp[0m|[0;1mp[0m|[7;1m [0m|[0;1mp[0m|[0;1mp[0m|[0;1mp[0m|| 2
[32;1m[Board] [0m  -------------------
[32;1m[Board] [0m1 ||[0;1mr[0m|[0;1mk[0m|[0;1mb[0m|[0;1mQ[0m|[0;1mK[0m|[0;1mb[0m|[0;1mk[0m|[0;1mr[0m|| 1
[32;1m[Board] [0m  -------------------
[32;1m[Board] [0m    a b c d e f g h
[32;1m[Board] [0m
[32;1m[Referee] [0mThis is the turn of the White player...
Input file: championship/lizzie-iii-chess-ai/history.csv
Output file: championship/lizzie-iii-chess-ai/move.csv
We are playing as White
8 | [1;31mR[0m [1;30m_[0m [1;31mB[0m [1;31mQ[0m [1;31mK[0m [1;31mB[0m [1;31mN[0m [1;31mR[0m 
7 | [1;31mP[0m [1;31mP[0m [1;31mP[0m [1;31mP[0m [1;31mP[0m [1;31mP[0m [1;31mP[0m [1;31mP[0m 
6 | [1;31mN[0m [1;30m_[0m [1;30m_[0m [1;30m_[0m [1;30m_[0m [1;30m_[0m [1;30m_[0m [1;30m_[0m 
5 | [1;30m_[0m [1;30m_[0m [1;30m_[0m [1;30m_[0m [1;30m_[0m [1;30m_[0m [1;30m_[0m [1;30m_[0m 
4 | [1;30m_[0m [1;30m_[0m [1;30m_[0m [1;30m_[0m [1;32mP[0m [1;30m_[0m [1;30m_[0m [1;30m_[0m 
3 | [1;30m_[0m [1;30m_[0m [1;30m_[0m [1;30m_[0m [1;30m_[0m [1;30m_[0m [1;30m_[0m [1;30m_[0m 
2 | [1;32mP[0m [1;32mP[0m [1;32mP[0m [1;32mP[0m [1;30m_[0m [1;32mP[0m [1;32mP[0m [1;32mP[0m 
1 | [1;32mR[0m [1;32mN[0m [1;32mB[0m [1;32mQ[0m [1;32mK[0m [1;32mB[0m [1;32mN[0m [1;32mR[0m 
-------------------
  | A B C D E F G H 

It is white's turn to play.
Best move: d1h5
Evaluation: 145
Node count: 54940

Total time: 1488.03 ms
[32;1m[Game] [0mPlayer's error code: 0
[32;1m[Game] [0mChecking move validity...
[32;1m[Board] [0mInitializing board...
[32;1m[Board] [0mLoading history file `championship/lizzie-iii-chess-ai/history.csv`...
[32;1m[Board] [0mLoaded 2 move(s).
[32;1m[Board] [0mLoading move file `championship/lizzie-iii-chess-ai/move.csv`...
[32;1m[Board] [0mWhite player is playing d1 to h5.
[32;1m[Board] [0m
[32;1m[Board] [0m    a b c d e f g h 
[32;1m[Board] [0m  -------------------
[32;1m[Board] [0m8 ||[30;1mr[0m| |[30;1mb[0m|[30;1mQ[0m|[30;1mK[0m|[30;1mb[0m|[30;1mk[0m|[30;1mr[0m|| 8
[32;1m[Board] [0m  -------------------
[32;1m[Board] [0m7 ||[30;1mp[0m|[30;1mp[0m|[30;1mp[0m|[30;1mp[0m|[30;1mp[0m|[30;1mp[0m|[30;1mp[0m|[30;1mp[0m|| 7
[32;1m[Board] [0m  -------------------
[32;1m[Board] [0m6 ||[30;1mk[0m| |[7;1m [0m| |[7;1m [0m| |[7;1m [0m| || 6
[32;1m[Board] [0m  -------------------
[32;1m[Board] [0m5 || |[7;1m [0m| |[7;1m [0m| |[7;1m [0m| |[0;1mQ[0m|| 5
[32;1m[Board] [0m  -------------------
[32;1m[Board] [0m4 ||[7;1m [0m| |[7;1m [0m| |[0;1mp[0m| |[7;1m [0m| || 4
[32;1m[Board] [0m  -------------------
[32;1m[Board] [0m3 || |[7;1m [0m| |[7;1m [0m| |[7;1m [0m| |[7;1m [0m|| 3
[32;1m[Board] [0m  -------------------
[32;1m[Board] [0m2 ||[0;1mp[0m|[0;1mp[0m|[0;1mp[0m|[0;1mp[0m|[7;1m [0m|[0;1mp[0m|[0;1mp[0m|[0;1mp[0m|| 2
[32;1m[Board] [0m  -------------------
[32;1m[Board] [0m1 ||[0;1mr[0m|[0;1mk[0m|[0;1mb[0m|[7;1m [0m|[0;1mK[0m|[0;1mb[0m|[0;1mk[0m|[0;1mr[0m|| 1
[32;1m[Board] [0m  -------------------
[32;1m[Board] [0m    a b c d e f g h
[32;1m[Board] [0m
[32;1m[Referee] [0mThis is the turn of the Black player...
5    a    b    c    d    e    f    g    h
  +----+----+----+----+----+----+----+----+
8 | mR | mN | mB | mQ | mK | mB | mN | mR | 8
  +----+----+----+----+----+----+----+----+
7 | mP | mP | mP | mP | mP | mP | mP | mP | 7
  +----+----+----+----+----+----+----+----+
6 |    |    |    |    |    |    |    |    | 6
  +----+----+----+----+----+----+----+----+
5 |    |    |    |    |    |    |    |    | 5
  +----+----+----+----+----+----+----+----+
4 |    |    |    |    | oP |    |    |    | 4
  +----+----+----+----+----+----+----+----+
3 |    |    |    |    |    |    |    |    | 3
  +----+----+----+----+----+----+----+----+
2 | oP | oP | oP | oP |    | oP | oP | oP | 2
  +----+----+----+----+----+----+----+----+
1 | oR | oN | oB | oQ | oK | oB | oN | oR | 1
  +----+----+----+----+----+----+----+----+
    a    b    c    d    e    f    g   h

    a    b    c    d    e    f    g    h
  +----+----+----+----+----+----+----+----+
8 | mR |    | mB | mQ | mK | mB | mN | mR | 8
  +----+----+----+----+----+----+----+----+
7 | mP | mP | mP | mP | mP | mP | mP | mP | 7
  +----+----+----+----+----+----+----+----+
6 | mN |    |    |    |    |    |    |    | 6
  +----+----+----+----+----+----+----+----+
5 |    |    |    |    |    |    |    |    | 5
  +----+----+----+----+----+----+----+----+
4 |    |    |    |    | oP |    |    |    | 4
  +----+----+----+----+----+----+----+----+
3 |    |    |    |    |    |    |    |    | 3
  +----+----+----+----+----+----+----+----+
2 | oP | oP | oP | oP |    | oP | oP | oP | 2
  +----+----+----+----+----+----+----+----+
1 | oR | oN | oB | oQ | oK | oB | oN | oR | 1
  +----+----+----+----+----+----+----+----+
    a    b    c    d    e    f    g   h

    a    b    c    d    e    f    g    h
  +----+----+----+----+----+----+----+----+
8 | mR |    | mB | mQ | mK | mB | mN | mR | 8
  +----+----+----+----+----+----+----+----+
7 | mP | mP | mP | mP | mP | mP | mP | mP | 7
  +----+----+----+----+----+----+----+----+
6 | mN |    |    |    |    |    |    |    | 6
  +----+----+----+----+----+----+----+----+
5 |    |    |    |    |    |    |    | oQ | 5
  +----+----+----+----+----+----+----+----+
4 |    |    |    |    | oP |    |    |    | 4
  +----+----+----+----+----+----+----+----+
3 |    |    |    |    |    |    |    |    | 3
  +----+----+----+----+----+----+----+----+
2 | oP | oP | oP | oP |    | oP | oP | oP | 2
  +----+----+----+----+----+----+----+----+
1 | oR | oN | oB |    | oK | oB | oN | oR | 1
  +----+----+----+----+----+----+----+----+
    a    b    c    d    e    f    g   h

    a    b    c    d    e    f    g    h
  +----+----+----+----+----+----+----+----+
8 | mR |    | mB | mQ | mK | mB | mN | mR | 8
  +----+----+----+----+----+----+----+----+
7 | mP | mP | mP | mP | mP | mP | mP | mP | 7
  +----+----+----+----+----+----+----+----+
6 | mN |    |    |    |    |    |    |    | 6
  +----+----+----+----+----+----+----+----+
5 |    |    |    |    |    |    |    | oQ | 5
  +----+----+----+----+----+----+----+----+
4 |    |    |    |    | oP |    |    |    | 4
  +----+----+----+----+----+----+----+----+
3 |    |    |    |    |    |    |    |    | 3
  +----+----+----+----+----+----+----+----+
2 | oP | oP | oP | oP |    | oP | oP | oP | 2
  +----+----+----+----+----+----+----+----+
1 | oR | oN | oB |    | oK | oB | oN | oR | 1
  +----+----+----+----+----+----+----+----+
    a    b    c    d    e    f    g   h

random move: a6b4
Move written to championship/lizzie-iii-chess-ai/move.csv successfully!
eval: -602
qrbkqrbkResult
Move: e4e3, Score: -10
Move: e1e2, Score: -20
Move: h5h3, Score: -25
Move: h5h6, Score: -25
Move: e1d1, Score: -30
Move: h5a5, Score: -30
Move: h5h4, Score: -30
Move: h5d1, Score: -30
Move: h5e2, Score: -35
Move: h5g4, Score: -40
Move: h5g6, Score: -40
Move: f1e2, Score: -40
Move: g1h3, Score: -40
Move: b1a3, Score: -40
Move: h5b5, Score: -45
Move: h5f3, Score: -45
Move: h5g5, Score: -45
Move: h5c5, Score: -50
Move: h5f5, Score: -50
Move: h5d5, Score: -55
Move: h5e5, Score: -55
Move: f1c4, Score: -60
Move: f1b5, Score: -60
Move: f1d3, Score: -60
Move: g1e2, Score: -70
Move: b1c3, Score: -80
Move: g1f3, Score: -80
Move: h5h7, Score: -130
Move: d2d1k, Score: -220
Move: d2d1b, Score: -230
Move: f1a6, Score: -310
Move: d2d1r, Score: -450
Move: d2d1q, Score: -845
[32;1m[Game] [0mPlayer's error code: 0
[32;1m[Game] [0mChecking move validity...
[32;1m[Board] [0mInitializing board...
[32;1m[Board] [0mLoading history file `championship/lizzie-iii-chess-ai/history.csv`...
[32;1m[Board] [0mLoaded 3 move(s).
[32;1m[Board] [0mLoading move file `championship/lizzie-iii-chess-ai/move.csv`...
[32;1m[Board] [0mBlack player is playing a6 to b4.
[32;1m[Board] [0m
[32;1m[Board] [0m    a b c d e f g h 
[32;1m[Board] [0m  -------------------
[32;1m[Board] [0m8 ||[30;1mr[0m| |[30;1mb[0m|[30;1mQ[0m|[30;1mK[0m|[30;1mb[0m|[30;1mk[0m|[30;1mr[0m|| 8
[32;1m[Board] [0m  -------------------
[32;1m[Board] [0m7 ||[30;1mp[0m|[30;1mp[0m|[30;1mp[0m|[30;1mp[0m|[30;1mp[0m|[30;1mp[0m|[30;1mp[0m|[30;1mp[0m|| 7
[32;1m[Board] [0m  -------------------
[32;1m[Board] [0m6 ||[7;1m [0m| |[7;1m [0m| |[7;1m [0m| |[7;1m [0m| || 6
[32;1m[Board] [0m  -------------------
[32;1m[Board] [0m5 || |[7;1m [0m| |[7;1m [0m| |[7;1m [0m| |[0;1mQ[0m|| 5
[32;1m[Board] [0m  -------------------
[32;1m[Board] [0m4 ||[7;1m [0m|[30;1mk[0m|[7;1m [0m| |[0;1mp[0m| |[7;1m [0m| || 4
[32;1m[Board] [0m  -------------------
[32;1m[Board] [0m3 || |[7;1m [0m| |[7;1m [0m| |[7;1m [0m| |[7;1m [0m|| 3
[32;1m[Board] [0m  -------------------
[32;1m[Board] [0m2 ||[0;1mp[0m|[0;1mp[0m|[0;1mp[0m|[0;1mp[0m|[7;1m [0m|[0;1mp[0m|[0;1mp[0m|[0;1mp[0m|| 2
[32;1m[Board] [0m  -------------------
[32;1m[Board] [0m1 ||[0;1mr[0m|[0;1mk[0m|[0;1mb[0m|[7;1m [0m|[0;1mK[0m|[0;1mb[0m|[0;1mk[0m|[0;1mr[0m|| 1
[32;1m[Board] [0m  -------------------
[32;1m[Board] [0m    a b c d e f g h
[32;1m[Board] [0m
[32;1m[Referee] [0mThis is the turn of the White player...
Input file: championship/lizzie-iii-chess-ai/history.csv
Output file: championship/lizzie-iii-chess-ai/move.csv
We are playing as White
8 | [1;31mR[0m [1;30m_[0m [1;31mB[0m [1;31mQ[0m [1;31mK[0m [1;31mB[0m [1;31mN[0m [1;31mR[0m 
7 | [1;31mP[0m [1;31mP[0m [1;31mP[0m [1;31mP[0m [1;31mP[0m [1;31mP[0m [1;31mP[0m [1;31mP[0m 
6 | [1;30m_[0m [1;30m_[0m [1;30m_[0m [1;30m_[0m [1;30m_[0m [1;30m_[0m [1;30m_[0m [1;30m_[0m 
5 | [1;30m_[0m [1;30m_[0m [1;30m_[0m [1;30m_[0m [1;30m_[0m [1;30m_[0m [1;30m_[0m [1;32mQ[0m 
4 | [1;30m_[0m [1;31mN[0m [1;30m_[0m [1;30m_[0m [1;32mP[0m [1;30m_[0m [1;30m_[0m [1;30m_[0m 
3 | [1;30m_[0m [1;30m_[0m [1;30m_[0m [1;30m_[0m [1;30m_[0m [1;30m_[0m [1;30m_[0m [1;30m_[0m 
2 | [1;32mP[0m [1;32mP[0m [1;32mP[0m [1;32mP[0m [1;30m_[0m [1;32mP[0m [1;32mP[0m [1;32mP[0m 
1 | [1;32mR[0m [1;32mN[0m [1;32mB[0m [1;30m_[0m [1;32mK[0m [1;32mB[0m [1;32mN[0m [1;32mR[0m 
-------------------
  | A B C D E F G H 

It is white's turn to play.
Best move: b1a3
Evaluation: 175
Node count: 50941

Total time: 1459.89 ms
[32;1m[Game] [0mPlayer's error code: 0
[32;1m[Game] [0mChecking move validity...
[32;1m[Board] [0mInitializing board...
[32;1m[Board] [0mLoading history file `championship/lizzie-iii-chess-ai/history.csv`...
[32;1m[Board] [0mLoaded 4 move(s).
[32;1m[Board] [0mLoading move file `championship/lizzie-iii-chess-ai/move.csv`...
[32;1m[Board] [0mWhite player is playing b1 to a3.
[32;1m[Board] [0m
[32;1m[Board] [0m    a b c d e f g h 
[32;1m[Board] [0m  -------------------
[32;1m[Board] [0m8 ||[30;1mr[0m| |[30;1mb[0m|[30;1mQ[0m|[30;1mK[0m|[30;1mb[0m|[30;1mk[0m|[30;1mr[0m|| 8
[32;1m[Board] [0m  -------------------
[32;1m[Board] [0m7 ||[30;1mp[0m|[30;1mp[0m|[30;1mp[0m|[30;1mp[0m|[30;1mp[0m|[30;1mp[0m|[30;1mp[0m|[30;1mp[0m|| 7
[32;1m[Board] [0m  -------------------
[32;1m[Board] [0m6 ||[7;1m [0m| |[7;1m [0m| |[7;1m [0m| |[7;1m [0m| || 6
[32;1m[Board] [0m  -------------------
[32;1m[Board] [0m5 || |[7;1m [0m| |[7;1m [0m| |[7;1m [0m| |[0;1mQ[0m|| 5
[32;1m[Board] [0m  -------------------
[32;1m[Board] [0m4 ||[7;1m [0m|[30;1mk[0m|[7;1m [0m| |[0;1mp[0m| |[7;1m [0m| || 4
[32;1m[Board] [0m  -------------------
[32;1m[Board] [0m3 ||[0;1mk[0m|[7;1m [0m| |[7;1m [0m| |[7;1m [0m| |[7;1m [0m|| 3
[32;1m[Board] [0m  -------------------
[32;1m[Board] [0m2 ||[0;1mp[0m|[0;1mp[0m|[0;1mp[0m|[0;1mp[0m|[7;1m [0m|[0;1mp[0m|[0;1mp[0m|[0;1mp[0m|| 2
[32;1m[Board] [0m  -------------------
[32;1m[Board] [0m1 ||[0;1mr[0m|[7;1m [0m|[0;1mb[0m|[7;1m [0m|[0;1mK[0m|[0;1mb[0m|[0;1mk[0m|[0;1mr[0m|| 1
[32;1m[Board] [0m  -------------------
[32;1m[Board] [0m    a b c d e f g h
[32;1m[Board] [0m
[32;1m[Referee] [0mThis is the turn of the Black player...
5    a    b    c    d    e    f    g    h
  +----+----+----+----+----+----+----+----+
8 | mR | mN | mB | mQ | mK | mB | mN | mR | 8
  +----+----+----+----+----+----+----+----+
7 | mP | mP | mP | mP | mP | mP | mP | mP | 7
  +----+----+----+----+----+----+----+----+
6 |    |    |    |    |    |    |    |    | 6
  +----+----+----+----+----+----+----+----+
5 |    |    |    |    |    |    |    |    | 5
  +----+----+----+----+----+----+----+----+
4 |    |    |    |    | oP |    |    |    | 4
  +----+----+----+----+----+----+----+----+
3 |    |    |    |    |    |    |    |    | 3
  +----+----+----+----+----+----+----+----+
2 | oP | oP | oP | oP |    | oP | oP | oP | 2
  +----+----+----+----+----+----+----+----+
1 | oR | oN | oB | oQ | oK | oB | oN | oR | 1
  +----+----+----+----+----+----+----+----+
    a    b    c    d    e    f    g   h

    a    b    c    d    e    f    g    h
  +----+----+----+----+----+----+----+----+
8 | mR |    | mB | mQ | mK | mB | mN | mR | 8
  +----+----+----+----+----+----+----+----+
7 | mP | mP | mP | mP | mP | mP | mP | mP | 7
  +----+----+----+----+----+----+----+----+
6 | mN |    |    |    |    |    |    |    | 6
  +----+----+----+----+----+----+----+----+
5 |    |    |    |    |    |    |    |    | 5
  +----+----+----+----+----+----+----+----+
4 |    |    |    |    | oP |    |    |    | 4
  +----+----+----+----+----+----+----+----+
3 |    |    |    |    |    |    |    |    | 3
  +----+----+----+----+----+----+----+----+
2 | oP | oP | oP | oP |    | oP | oP | oP | 2
  +----+----+----+----+----+----+----+----+
1 | oR | oN | oB | oQ | oK | oB | oN | oR | 1
  +----+----+----+----+----+----+----+----+
    a    b    c    d    e    f    g   h

    a    b    c    d    e    f    g    h
  +----+----+----+----+----+----+----+----+
8 | mR |    | mB | mQ | mK | mB | mN | mR | 8
  +----+----+----+----+----+----+----+----+
7 | mP | mP | mP | mP | mP | mP | mP | mP | 7
  +----+----+----+----+----+----+----+----+
6 | mN |    |    |    |    |    |    |    | 6
  +----+----+----+----+----+----+----+----+
5 |    |    |    |    |    |    |    | oQ | 5
  +----+----+----+----+----+----+----+----+
4 |    |    |    |    | oP |    |    |    | 4
  +----+----+----+----+----+----+----+----+
3 |    |    |    |    |    |    |    |    | 3
  +----+----+----+----+----+----+----+----+
2 | oP | oP | oP | oP |    | oP | oP | oP | 2
  +----+----+----+----+----+----+----+----+
1 | oR | oN | oB |    | oK | oB | oN | oR | 1
  +----+----+----+----+----+----+----+----+
    a    b    c    d    e    f    g   h

    a    b    c    d    e    f    g    h
  +----+----+----+----+----+----+----+----+
8 | mR |    | mB | mQ | mK | mB | mN | mR | 8
  +----+----+----+----+----+----+----+----+
7 | mP | mP | mP | mP | mP | mP | mP | mP | 7
  +----+----+----+----+----+----+----+----+
6 |    |    |    |    |    |    |    |    | 6
  +----+----+----+----+----+----+----+----+
5 |    |    |    |    |    |    |    | oQ | 5
  +----+----+----+----+----+----+----+----+
4 |    | mN |    |    | oP |    |    |    | 4
  +----+----+----+----+----+----+----+----+
3 |    |    |    |    |    |    |    |    | 3
  +----+----+----+----+----+----+----+----+
2 | oP | oP | oP | oP |    | oP | oP | oP | 2
  +----+----+----+----+----+----+----+----+
1 | oR | oN | oB |    | oK | oB | oN | oR | 1
  +----+----+----+----+----+----+----+----+
    a    b    c    d    e    f    g   h

    a    b    c    d    e    f    g    h
  +----+----+----+----+----+----+----+----+
8 | mR |    | mB | mQ | mK | mB | mN | mR | 8
  +----+----+----+----+----+----+----+----+
7 | mP | mP | mP | mP | mP | mP | mP | mP | 7
  +----+----+----+----+----+----+----+----+
6 |    |    |    |    |    |    |    |    | 6
  +----+----+----+----+----+----+----+----+
5 |    |    |    |    |    |    |    | oQ | 5
  +----+----+----+----+----+----+----+----+
4 |    | mN |    |    | oP |    |    |    | 4
  +----+----+----+----+----+----+----+----+
3 | oN |    |    |    |    |    |    |    | 3
  +----+----+----+----+----+----+----+----+
2 | oP | oP | oP | oP |    | oP | oP | oP | 2
  +----+----+----+----+----+----+----+----+
1 | oR |    | oB |    | oK | oB | oN | oR | 1
  +----+----+----+----+----+----+----+----+
    a    b    c    d    e    f    g   h

    a    b    c    d    e    f    g    h
  +----+----+----+----+----+----+----+----+
8 | mR |    | mB | mQ | mK | mB | mN | mR | 8
  +----+----+----+----+----+----+----+----+
7 | mP | mP | mP | mP | mP | mP | mP | mP | 7
  +----+----+----+----+----+----+----+----+
6 |    |    |    |    |    |    |    |    | 6
  +----+----+----+----+----+----+----+----+
5 |    |    |    |    |    |    |    | oQ | 5
  +----+----+----+----+----+----+----+----+
4 |    | mN |    |    | oP |    |    |    | 4
  +----+----+----+----+----+----+----+----+
3 | oN |    |    |    |    |    |    |    | 3
  +----+----+----+----+----+----+----+----+
2 | oP | oP | oP | oP |    | oP | oP | oP | 2
  +----+----+----+----+----+----+----+----+
1 | oR |    | oB |    | oK | oB | oN | oR | 1
  +----+----+----+----+----+----+----+----+
    a    b    c    d    e    f    g   h

random move: c7c6
Move written to championship/lizzie-iii-chess-ai/move.csv successfully!
eval: -535
qrbkqrbkqrbkqrbkResult
Move: e4e3, Score: 10
Move: e1e2, Score: 0
Move: a3b1, Score: 0
Move: h5h6, Score: -5
Move: h5h3, Score: -5
Move: h5a5, Score: -10
Move: e1d1, Score: -10
Move: a1b1, Score: -10
Move: h5d1, Score: -10
Move: h5h4, Score: -10
Move: h5e2, Score: -15
Move: h5g4, Score: -20
Move: h5g6, Score: -20
Move: f1a6, Score: -20
Move: g1h3, Score: -20
Move: f1e2, Score: -20
Move: h5f3, Score: -25
Move: h5g5, Score: -25
Move: h5b5, Score: -25
Move: h5f5, Score: -30
Move: h5c5, Score: -30
Move: h5e5, Score: -35
Move: h5d5, Score: -35
Move: f1b5, Score: -40
Move: f1c4, Score: -40
Move: f1d3, Score: -40
Move: a3b5, Score: -40
Move: g1e2, Score: -50
Move: a3c4, Score: -55
Move: g1f3, Score: -60
Move: h5h7, Score: -110
Move: b2b1k, Score: -160
Move: b2b1b, Score: -180
Move: d2d1k, Score: -200
Move: d2d1b, Score: -210
Move: b2b1r, Score: -400
Move: d2d1r, Score: -430
Move: b2b1q, Score: -790
Move: d2d1q, Score: -825
[32;1m[Game] [0mPlayer's error code: 0
[32;1m[Game] [0mChecking move validity...
[32;1m[Board] [0mInitializing board...
[32;1m[Board] [0mLoading history file `championship/lizzie-iii-chess-ai/history.csv`...
[32;1m[Board] [0mLoaded 5 move(s).
[32;1m[Board] [0mLoading move file `championship/lizzie-iii-chess-ai/move.csv`...
[32;1m[Board] [0mBlack player is playing c7 to c6.
[32;1m[Board] [0m
[32;1m[Board] [0m    a b c d e f g h 
[32;1m[Board] [0m  -------------------
[32;1m[Board] [0m8 ||[30;1mr[0m| |[30;1mb[0m|[30;1mQ[0m|[30;1mK[0m|[30;1mb[0m|[30;1mk[0m|[30;1mr[0m|| 8
[32;1m[Board] [0m  -------------------
[32;1m[Board] [0m7 ||[30;1mp[0m|[30;1mp[0m| |[30;1mp[0m|[30;1mp[0m|[30;1mp[0m|[30;1mp[0m|[30;1mp[0m|| 7
[32;1m[Board] [0m  -------------------
[32;1m[Board] [0m6 ||[7;1m [0m| |[30;1mp[0m| |[7;1m [0m| |[7;1m [0m| || 6
[32;1m[Board] [0m  -------------------
[32;1m[Board] [0m5 || |[7;1m [0m| |[7;1m [0m| |[7;1m [0m| |[0;1mQ[0m|| 5
[32;1m[Board] [0m  -------------------
[32;1m[Board] [0m4 ||[7;1m [0m|[30;1mk[0m|[7;1m [0m| |[0;1mp[0m| |[7;1m [0m| || 4
[32;1m[Board] [0m  -------------------
[32;1m[Board] [0m3 ||[0;1mk[0m|[7;1m [0m| |[7;1m [0m| |[7;1m [0m| |[7;1m [0m|| 3
[32;1m[Board] [0m  -------------------
[32;1m[Board] [0m2 ||[0;1mp[0m|[0;1mp[0m|[0;1mp[0m|[0;1mp[0m|[7;1m [0m|[0;1mp[0m|[0;1mp[0m|[0;1mp[0m|| 2
[32;1m[Board] [0m  -------------------
[32;1m[Board] [0m1 ||[0;1mr[0m|[7;1m [0m|[0;1mb[0m|[7;1m [0m|[0;1mK[0m|[0;1mb[0m|[0;1mk[0m|[0;1mr[0m|| 1
[32;1m[Board] [0m  -------------------
[32;1m[Board] [0m    a b c d e f g h
[32;1m[Board] [0m
[32;1m[Referee] [0mThis is the turn of the White player...
Input file: championship/lizzie-iii-chess-ai/history.csv
Output file: championship/lizzie-iii-chess-ai/move.csv
We are playing as White
8 | [1;31mR[0m [1;30m_[0m [1;31mB[0m [1;31mQ[0m [1;31mK[0m [1;31mB[0m [1;31mN[0m [1;31mR[0m 
7 | [1;31mP[0m [1;31mP[0m [1;30m_[0m [1;31mP[0m [1;31mP[0m [1;31mP[0m [1;31mP[0m [1;31mP[0m 
6 | [1;30m_[0m [1;30m_[0m [1;31mP[0m [1;30m_[0m [1;30m_[0m [1;30m_[0m [1;30m_[0m [1;30m_[0m 
5 | [1;30m_[0m [1;30m_[0m [1;30m_[0m [1;30m_[0m [1;30m_[0m [1;30m_[0m [1;30m_[0m [1;32mQ[0m 
4 | [1;30m_[0m [1;31mN[0m [1;30m_[0m [1;30m_[0m [1;32mP[0m [1;30m_[0m [1;30m_[0m [1;30m_[0m 
3 | [1;32mN[0m [1;30m_[0m [1;30m_[0m [1;30m_[0m [1;30m_[0m [1;30m_[0m [1;30m_[0m [1;30m_[0m 
2 | [1;32mP[0m [1;32mP[0m [1;32mP[0m [1;32mP[0m [1;30m_[0m [1;32mP[0m [1;32mP[0m [1;32mP[0m 
1 | [1;32mR[0m [1;30m_[0m [1;32mB[0m [1;30m_[0m [1;32mK[0m [1;32mB[0m [1;32mN[0m [1;32mR[0m 
-------------------
  | A B C D E F G H 

It is white's turn to play.
Best move: g1f3
Evaluation: 245
Node count: 113183

Total time: 3757.59 ms
[32;1m[Game] [0mPlayer's error code: 0
[32;1m[Game] [0mChecking move validity...
[32;1m[Board] [0mInitializing board...
[32;1m[Board] [0mLoading history file `championship/lizzie-iii-chess-ai/history.csv`...
[32;1m[Board] [0mLoaded 6 move(s).
[32;1m[Board] [0mLoading move file `championship/lizzie-iii-chess-ai/move.csv`...
[32;1m[Board] [0mWhite player is playing g1 to f3.
[32;1m[Board] [0m
[32;1m[Board] [0m    a b c d e f g h 
[32;1m[Board] [0m  -------------------
[32;1m[Board] [0m8 ||[30;1mr[0m| |[30;1mb[0m|[30;1mQ[0m|[30;1mK[0m|[30;1mb[0m|[30;1mk[0m|[30;1mr[0m|| 8
[32;1m[Board] [0m  -------------------
[32;1m[Board] [0m7 ||[30;1mp[0m|[30;1mp[0m| |[30;1mp[0m|[30;1mp[0m|[30;1mp[0m|[30;1mp[0m|[30;1mp[0m|| 7
[32;1m[Board] [0m  -------------------
[32;1m[Board] [0m6 ||[7;1m [0m| |[30;1mp[0m| |[7;1m [0m| |[7;1m [0m| || 6
[32;1m[Board] [0m  -------------------
[32;1m[Board] [0m5 || |[7;1m [0m| |[7;1m [0m| |[7;1m [0m| |[0;1mQ[0m|| 5
[32;1m[Board] [0m  -------------------
[32;1m[Board] [0m4 ||[7;1m [0m|[30;1mk[0m|[7;1m [0m| |[0;1mp[0m| |[7;1m [0m| || 4
[32;1m[Board] [0m  -------------------
[32;1m[Board] [0m3 ||[0;1mk[0m|[7;1m [0m| |[7;1m [0m| |[0;1mk[0m| |[7;1m [0m|| 3
[32;1m[Board] [0m  -------------------
[32;1m[Board] [0m2 ||[0;1mp[0m|[0;1mp[0m|[0;1mp[0m|[0;1mp[0m|[7;1m [0m|[0;1mp[0m|[0;1mp[0m|[0;1mp[0m|| 2
[32;1m[Board] [0m  -------------------
[32;1m[Board] [0m1 ||[0;1mr[0m|[7;1m [0m|[0;1mb[0m|[7;1m [0m|[0;1mK[0m|[0;1mb[0m| |[0;1mr[0m|| 1
[32;1m[Board] [0m  -------------------
[32;1m[Board] [0m    a b c d e f g h
[32;1m[Board] [0m
[32;1m[Referee] [0mThis is the turn of the Black player...
5    a    b    c    d    e    f    g    h
  +----+----+----+----+----+----+----+----+
8 | mR | mN | mB | mQ | mK | mB | mN | mR | 8
  +----+----+----+----+----+----+----+----+
7 | mP | mP | mP | mP | mP | mP | mP | mP | 7
  +----+----+----+----+----+----+----+----+
6 |    |    |    |    |    |    |    |    | 6
  +----+----+----+----+----+----+----+----+
5 |    |    |    |    |    |    |    |    | 5
  +----+----+----+----+----+----+----+----+
4 |    |    |    |    | oP |    |    |    | 4
  +----+----+----+----+----+----+----+----+
3 |    |    |    |    |    |    |    |    | 3
  +----+----+----+----+----+----+----+----+
2 | oP | oP | oP | oP |    | oP | oP | oP | 2
  +----+----+----+----+----+----+----+----+
1 | oR | oN | oB | oQ | oK | oB | oN | oR | 1
  +----+----+----+----+----+----+----+----+
    a    b    c    d    e    f    g   h

    a    b    c    d    e    f    g    h
  +----+----+----+----+----+----+----+----+
8 | mR |    | mB | mQ | mK | mB | mN | mR | 8
  +----+----+----+----+----+----+----+----+
7 | mP | mP | mP | mP | mP | mP | mP | mP | 7
  +----+----+----+----+----+----+----+----+
6 | mN |    |    |    |    |    |    |    | 6
  +----+----+----+----+----+----+----+----+
5 |    |    |    |    |    |    |    |    | 5
  +----+----+----+----+----+----+----+----+
4 |    |    |    |    | oP |    |    |    | 4
  +----+----+----+----+----+----+----+----+
3 |    |    |    |    |    |    |    |    | 3
  +----+----+----+----+----+----+----+----+
2 | oP | oP | oP | oP |    | oP | oP | oP | 2
  +----+----+----+----+----+----+----+----+
1 | oR | oN | oB | oQ | oK | oB | oN | oR | 1
  +----+----+----+----+----+----+----+----+
    a    b    c    d    e    f    g   h

    a    b    c    d    e    f    g    h
  +----+----+----+----+----+----+----+----+
8 | mR |    | mB | mQ | mK | mB | mN | mR | 8
  +----+----+----+----+----+----+----+----+
7 | mP | mP | mP | mP | mP | mP | mP | mP | 7
  +----+----+----+----+----+----+----+----+
6 | mN |    |    |    |    |    |    |    | 6
  +----+----+----+----+----+----+----+----+
5 |    |    |    |    |    |    |    | oQ | 5
  +----+----+----+----+----+----+----+----+
4 |    |    |    |    | oP |    |    |    | 4
  +----+----+----+----+----+----+----+----+
3 |    |    |    |    |    |    |    |    | 3
  +----+----+----+----+----+----+----+----+
2 | oP | oP | oP | oP |    | oP | oP | oP | 2
  +----+----+----+----+----+----+----+----+
1 | oR | oN | oB |    | oK | oB | oN | oR | 1
  +----+----+----+----+----+----+----+----+
    a    b    c    d    e    f    g   h

    a    b    c    d    e    f    g    h
  +----+----+----+----+----+----+----+----+
8 | mR |    | mB | mQ | mK | mB | mN | mR | 8
  +----+----+----+----+----+----+----+----+
7 | mP | mP | mP | mP | mP | mP | mP | mP | 7
  +----+----+----+----+----+----+----+----+
6 |    |    |    |    |    |    |    |    | 6
  +----+----+----+----+----+----+----+----+
5 |    |    |    |    |    |    |    | oQ | 5
  +----+----+----+----+----+----+----+----+
4 |    | mN |    |    | oP |    |    |    | 4
  +----+----+----+----+----+----+----+----+
3 |    |    |    |    |    |    |    |    | 3
  +----+----+----+----+----+----+----+----+
2 | oP | oP | oP | oP |    | oP | oP | oP | 2
  +----+----+----+----+----+----+----+----+
1 | oR | oN | oB |    | oK | oB | oN | oR | 1
  +----+----+----+----+----+----+----+----+
    a    b    c    d    e    f    g   h

    a    b    c    d    e    f    g    h
  +----+----+----+----+----+----+----+----+
8 | mR |    | mB | mQ | mK | mB | mN | mR | 8
  +----+----+----+----+----+----+----+----+
7 | mP | mP | mP | mP | mP | mP | mP | mP | 7
  +----+----+----+----+----+----+----+----+
6 |    |    |    |    |    |    |    |    | 6
  +----+----+----+----+----+----+----+----+
5 |    |    |    |    |    |    |    | oQ | 5
  +----+----+----+----+----+----+----+----+
4 |    | mN |    |    | oP |    |    |    | 4
  +----+----+----+----+----+----+----+----+
3 | oN |    |    |    |    |    |    |    | 3
  +----+----+----+----+----+----+----+----+
2 | oP | oP | oP | oP |    | oP | oP | oP | 2
  +----+----+----+----+----+----+----+----+
1 | oR |    | oB |    | oK | oB | oN | oR | 1
  +----+----+----+----+----+----+----+----+
    a    b    c    d    e    f    g   h

    a    b    c    d    e    f    g    h
  +----+----+----+----+----+----+----+----+
8 | mR |    | mB | mQ | mK | mB | mN | mR | 8
  +----+----+----+----+----+----+----+----+
7 | mP | mP |    | mP | mP | mP | mP | mP | 7
  +----+----+----+----+----+----+----+----+
6 |    |    | mP |    |    |    |    |    | 6
  +----+----+----+----+----+----+----+----+
5 |    |    |    |    |    |    |    | oQ | 5
  +----+----+----+----+----+----+----+----+
4 |    | mN |    |    | oP |    |    |    | 4
  +----+----+----+----+----+----+----+----+
3 | oN |    |    |    |    |    |    |    | 3
  +----+----+----+----+----+----+----+----+
2 | oP | oP | oP | oP |    | oP | oP | oP | 2
  +----+----+----+----+----+----+----+----+
1 | oR |    | oB |    | oK | oB | oN | oR | 1
  +----+----+----+----+----+----+----+----+
    a    b    c    d    e    f    g   h

    a    b    c    d    e    f    g    h
  +----+----+----+----+----+----+----+----+
8 | mR |    | mB | mQ | mK | mB | mN | mR | 8
  +----+----+----+----+----+----+----+----+
7 | mP | mP |    | mP | mP | mP | mP | mP | 7
  +----+----+----+----+----+----+----+----+
6 |    |    | mP |    |    |    |    |    | 6
  +----+----+----+----+----+----+----+----+
5 |    |    |    |    |    |    |    | oQ | 5
  +----+----+----+----+----+----+----+----+
4 |    | mN |    |    | oP |    |    |    | 4
  +----+----+----+----+----+----+----+----+
3 | oN |    |    |    |    | oN |    |    | 3
  +----+----+----+----+----+----+----+----+
2 | oP | oP | oP | oP |    | oP | oP | oP | 2
  +----+----+----+----+----+----+----+----+
1 | oR |    | oB |    | oK | oB |    | oR | 1
  +----+----+----+----+----+----+----+----+
    a    b    c    d    e    f    g   h

    a    b    c    d    e    f    g    h
  +----+----+----+----+----+----+----+----+
8 | mR |    | mB | mQ | mK | mB | mN | mR | 8
  +----+----+----+----+----+----+----+----+
7 | mP | mP |    | mP | mP | mP | mP | mP | 7
  +----+----+----+----+----+----+----+----+
6 |    |    | mP |    |    |    |    |    | 6
  +----+----+----+----+----+----+----+----+
5 |    |    |    |    |    |    |    | oQ | 5
  +----+----+----+----+----+----+----+----+
4 |    | mN |    |    | oP |    |    |    | 4
  +----+----+----+----+----+----+----+----+
3 | oN |    |    |    |    | oN |    |    | 3
  +----+----+----+----+----+----+----+----+
2 | oP | oP | oP | oP |    | oP | oP | oP | 2
  +----+----+----+----+----+----+----+----+
1 | oR |    | oB |    | oK | oB |    | oR | 1
  +----+----+----+----+----+----+----+----+
    a    b    c    d    e    f    g   h

random move: b7b5
Move written to championship/lizzie-iii-chess-ai/move.csv successfully!
eval: -478
qrbkqrbkqrbkqrbkqrbkqrbkResult
Move: f3g1, Score: -30
Move: f3h4, Score: -40
Move: e4e3, Score: -60
Move: e1e2, Score: -70
Move: f3g5, Score: -70
Move: a3b1, Score: -70
Move: h5h6, Score: -75
Move: h5h3, Score: -75
Move: h5h4, Score: -80
Move: a1b1, Score: -80
Move: h1g1, Score: -80
Move: h5a5, Score: -80
Move: e1d1, Score: -80
Move: h5g4, Score: -90
Move: h5g6, Score: -90
Move: f1a6, Score: -90
Move: f1e2, Score: -90
Move: f3e5, Score: -90
Move: f3d4, Score: -90
Move: h5b5, Score: -95
Move: h5g5, Score: -95
Move: h5c5, Score: -100
Move: h5f5, Score: -100
Move: h5d5, Score: -105
Move: h5e5, Score: -105
Move: a3b5, Score: -110
Move: f1d3, Score: -110
Move: f1c4, Score: -110
Move: f1b5, Score: -110
Move: a3c4, Score: -125
Move: h5h7, Score: -180
Move: g2g1k, Score: -230
Move: b2b1k, Score: -230
Move: g2g1b, Score: -250
Move: b2b1b, Score: -250
Move: d2d1k, Score: -270
Move: d2d1b, Score: -280
Move: g2g1r, Score: -470
Move: b2b1r, Score: -470
Move: d2d1r, Score: -500
Move: g2g1q, Score: -860
Move: b2b1q, Score: -860
Move: d2d1q, Score: -895
[32;1m[Game] [0mPlayer's error code: 0
[32;1m[Game] [0mChecking move validity...
[32;1m[Board] [0mInitializing board...
[32;1m[Board] [0mLoading history file `championship/lizzie-iii-chess-ai/history.csv`...
[32;1m[Board] [0mLoaded 7 move(s).
[32;1m[Board] [0mLoading move file `championship/lizzie-iii-chess-ai/move.csv`...
[32;1m[Board] [0mBlack player is playing b7 to b5.
[32;1m[Board] [0m
[32;1m[Board] [0m    a b c d e f g h 
[32;1m[Board] [0m  -------------------
[32;1m[Board] [0m8 ||[30;1mr[0m| |[30;1mb[0m|[30;1mQ[0m|[30;1mK[0m|[30;1mb[0m|[30;1mk[0m|[30;1mr[0m|| 8
[32;1m[Board] [0m  -------------------
[32;1m[Board] [0m7 ||[30;1mp[0m|[7;1m [0m| |[30;1mp[0m|[30;1mp[0m|[30;1mp[0m|[30;1mp[0m|[30;1mp[0m|| 7
[32;1m[Board] [0m  -------------------
[32;1m[Board] [0m6 ||[7;1m [0m| |[30;1mp[0m| |[7;1m [0m| |[7;1m [0m| || 6
[32;1m[Board] [0m  -------------------
[32;1m[Board] [0m5 || |[30;1mp[0m| |[7;1m [0m| |[7;1m [0m| |[0;1mQ[0m|| 5
[32;1m[Board] [0m  -------------------
[32;1m[Board] [0m4 ||[7;1m [0m|[30;1mk[0m|[7;1m [0m| |[0;1mp[0m| |[7;1m [0m| || 4
[32;1m[Board] [0m  -------------------
[32;1m[Board] [0m3 ||[0;1mk[0m|[7;1m [0m| |[7;1m [0m| |[0;1mk[0m| |[7;1m [0m|| 3
[32;1m[Board] [0m  -------------------
[32;1m[Board] [0m2 ||[0;1mp[0m|[0;1mp[0m|[0;1mp[0m|[0;1mp[0m|[7;1m [0m|[0;1mp[0m|[0;1mp[0m|[0;1mp[0m|| 2
[32;1m[Board] [0m  -------------------
[32;1m[Board] [0m1 ||[0;1mr[0m|[7;1m [0m|[0;1mb[0m|[7;1m [0m|[0;1mK[0m|[0;1mb[0m| |[0;1mr[0m|| 1
[32;1m[Board] [0m  -------------------
[32;1m[Board] [0m    a b c d e f g h
[32;1m[Board] [0m
[32;1m[Referee] [0mThis is the turn of the White player...
Input file: championship/lizzie-iii-chess-ai/history.csv
Output file: championship/lizzie-iii-chess-ai/move.csv
We are playing as White
8 | [1;31mR[0m [1;30m_[0m [1;31mB[0m [1;31mQ[0m [1;31mK[0m [1;31mB[0m [1;31mN[0m [1;31mR[0m 
7 | [1;31mP[0m [1;30m_[0m [1;30m_[0m [1;31mP[0m [1;31mP[0m [1;31mP[0m [1;31mP[0m [1;31mP[0m 
6 | [1;30m_[0m [1;30m_[0m [1;31mP[0m [1;30m_[0m [1;30m_[0m [1;30m_[0m [1;30m_[0m [1;30m_[0m 
5 | [1;30m_[0m [1;31mP[0m [1;30m_[0m [1;30m_[0m [1;30m_[0m [1;30m_[0m [1;30m_[0m [1;32mQ[0m 
4 | [1;30m_[0m [1;31mN[0m [1;30m_[0m [1;30m_[0m [1;32mP[0m [1;30m_[0m [1;30m_[0m [1;30m_[0m 
3 | [1;32mN[0m [1;30m_[0m [1;30m_[0m [1;30m_[0m [1;30m_[0m [1;32mN[0m [1;30m_[0m [1;30m_[0m 
2 | [1;32mP[0m [1;32mP[0m [1;32mP[0m [1;32mP[0m [1;30m_[0m [1;32mP[0m [1;32mP[0m [1;32mP[0m 
1 | [1;32mR[0m [1;30m_[0m [1;32mB[0m [1;30m_[0m [1;32mK[0m [1;32mB[0m [1;30m_[0m [1;32mR[0m 
-------------------
  | A B C D E F G H 

It is white's turn to play.
Best move: d2d4
Evaluation: 260
Node count: 115094

Total time: 4228.07 ms
[32;1m[Game] [0mPlayer's error code: 0
[32;1m[Game] [0mChecking move validity...
[32;1m[Board] [0mInitializing board...
[32;1m[Board] [0mLoading history file `championship/lizzie-iii-chess-ai/history.csv`...
[32;1m[Board] [0mLoaded 8 move(s).
[32;1m[Board] [0mLoading move file `championship/lizzie-iii-chess-ai/move.csv`...
[32;1m[Board] [0mWhite player is playing d2 to d4.
[32;1m[Board] [0m
[32;1m[Board] [0m    a b c d e f g h 
[32;1m[Board] [0m  -------------------
[32;1m[Board] [0m8 ||[30;1mr[0m| |[30;1mb[0m|[30;1mQ[0m|[30;1mK[0m|[30;1mb[0m|[30;1mk[0m|[30;1mr[0m|| 8
[32;1m[Board] [0m  -------------------
[32;1m[Board] [0m7 ||[30;1mp[0m|[7;1m [0m| |[30;1mp[0m|[30;1mp[0m|[30;1mp[0m|[30;1mp[0m|[30;1mp[0m|| 7
[32;1m[Board] [0m  -------------------
[32;1m[Board] [0m6 ||[7;1m [0m| |[30;1mp[0m| |[7;1m [0m| |[7;1m [0m| || 6
[32;1m[Board] [0m  -------------------
[32;1m[Board] [0m5 || |[30;1mp[0m| |[7;1m [0m| |[7;1m [0m| |[0;1mQ[0m|| 5
[32;1m[Board] [0m  -------------------
[32;1m[Board] [0m4 ||[7;1m [0m|[30;1mk[0m|[7;1m [0m|[0;1mp[0m|[0;1mp[0m| |[7;1m [0m| || 4
[32;1m[Board] [0m  -------------------
[32;1m[Board] [0m3 ||[0;1mk[0m|[7;1m [0m| |[7;1m [0m| |[0;1mk[0m| |[7;1m [0m|| 3
[32;1m[Board] [0m  -------------------
[32;1m[Board] [0m2 ||[0;1mp[0m|[0;1mp[0m|[0;1mp[0m| |[7;1m [0m|[0;1mp[0m|[0;1mp[0m|[0;1mp[0m|| 2
[32;1m[Board] [0m  -------------------
[32;1m[Board] [0m1 ||[0;1mr[0m|[7;1m [0m|[0;1mb[0m|[7;1m [0m|[0;1mK[0m|[0;1mb[0m| |[0;1mr[0m|| 1
[32;1m[Board] [0m  -------------------
[32;1m[Board] [0m    a b c d e f g h
[32;1m[Board] [0m
[32;1m[Referee] [0mThis is the turn of the Black player...
5    a    b    c    d    e    f    g    h
  +----+----+----+----+----+----+----+----+
8 | mR | mN | mB | mQ | mK | mB | mN | mR | 8
  +----+----+----+----+----+----+----+----+
7 | mP | mP | mP | mP | mP | mP | mP | mP | 7
  +----+----+----+----+----+----+----+----+
6 |    |    |    |    |    |    |    |    | 6
  +----+----+----+----+----+----+----+----+
5 |    |    |    |    |    |    |    |    | 5
  +----+----+----+----+----+----+----+----+
4 |    |    |    |    | oP |    |    |    | 4
  +----+----+----+----+----+----+----+----+
3 |    |    |    |    |    |    |    |    | 3
  +----+----+----+----+----+----+----+----+
2 | oP | oP | oP | oP |    | oP | oP | oP | 2
  +----+----+----+----+----+----+----+----+
1 | oR | oN | oB | oQ | oK | oB | oN | oR | 1
  +----+----+----+----+----+----+----+----+
    a    b    c    d    e    f    g   h

    a    b    c    d    e    f    g    h
  +----+----+----+----+----+----+----+----+
8 | mR |    | mB | mQ | mK | mB | mN | mR | 8
  +----+----+----+----+----+----+----+----+
7 | mP | mP | mP | mP | mP | mP | mP | mP | 7
  +----+----+----+----+----+----+----+----+
6 | mN |    |    |    |    |    |    |    | 6
  +----+----+----+----+----+----+----+----+
5 |    |    |    |    |    |    |    |    | 5
  +----+----+----+----+----+----+----+----+
4 |    |    |    |    | oP |    |    |    | 4
  +----+----+----+----+----+----+----+----+
3 |    |    |    |    |    |    |    |    | 3
  +----+----+----+----+----+----+----+----+
2 | oP | oP | oP | oP |    | oP | oP | oP | 2
  +----+----+----+----+----+----+----+----+
1 | oR | oN | oB | oQ | oK | oB | oN | oR | 1
  +----+----+----+----+----+----+----+----+
    a    b    c    d    e    f    g   h

    a    b    c    d    e    f    g    h
  +----+----+----+----+----+----+----+----+
8 | mR |    | mB | mQ | mK | mB | mN | mR | 8
  +----+----+----+----+----+----+----+----+
7 | mP | mP | mP | mP | mP | mP | mP | mP | 7
  +----+----+----+----+----+----+----+----+
6 | mN |    |    |    |    |    |    |    | 6
  +----+----+----+----+----+----+----+----+
5 |    |    |    |    |    |    |    | oQ | 5
  +----+----+----+----+----+----+----+----+
4 |    |    |    |    | oP |    |    |    | 4
  +----+----+----+----+----+----+----+----+
3 |    |    |    |    |    |    |    |    | 3
  +----+----+----+----+----+----+----+----+
2 | oP | oP | oP | oP |    | oP | oP | oP | 2
  +----+----+----+----+----+----+----+----+
1 | oR | oN | oB |    | oK | oB | oN | oR | 1
  +----+----+----+----+----+----+----+----+
    a    b    c    d    e    f    g   h

    a    b    c    d    e    f    g    h
  +----+----+----+----+----+----+----+----+
8 | mR |    | mB | mQ | mK | mB | mN | mR | 8
  +----+----+----+----+----+----+----+----+
7 | mP | mP | mP | mP | mP | mP | mP | mP | 7
  +----+----+----+----+----+----+----+----+
6 |    |    |    |    |    |    |    |    | 6
  +----+----+----+----+----+----+----+----+
5 |    |    |    |    |    |    |    | oQ | 5
  +----+----+----+----+----+----+----+----+
4 |    | mN |    |    | oP |    |    |    | 4
  +----+----+----+----+----+----+----+----+
3 |    |    |    |    |    |    |    |    | 3
  +----+----+----+----+----+----+----+----+
2 | oP | oP | oP | oP |    | oP | oP | oP | 2
  +----+----+----+----+----+----+----+----+
1 | oR | oN | oB |    | oK | oB | oN | oR | 1
  +----+----+----+----+----+----+----+----+
    a    b    c    d    e    f    g   h

    a    b    c    d    e    f    g    h
  +----+----+----+----+----+----+----+----+
8 | mR |    | mB | mQ | mK | mB | mN | mR | 8
  +----+----+----+----+----+----+----+----+
7 | mP | mP | mP | mP | mP | mP | mP | mP | 7
  +----+----+----+----+----+----+----+----+
6 |    |    |    |    |    |    |    |    | 6
  +----+----+----+----+----+----+----+----+
5 |    |    |    |    |    |    |    | oQ | 5
  +----+----+----+----+----+----+----+----+
4 |    | mN |    |    | oP |    |    |    | 4
  +----+----+----+----+----+----+----+----+
3 | oN |    |    |    |    |    |    |    | 3
  +----+----+----+----+----+----+----+----+
2 | oP | oP | oP | oP |    | oP | oP | oP | 2
  +----+----+----+----+----+----+----+----+
1 | oR |    | oB |    | oK | oB | oN | oR | 1
  +----+----+----+----+----+----+----+----+
    a    b    c    d    e    f    g   h

    a    b    c    d    e    f    g    h
  +----+----+----+----+----+----+----+----+
8 | mR |    | mB | mQ | mK | mB | mN | mR | 8
  +----+----+----+----+----+----+----+----+
7 | mP | mP |    | mP | mP | mP | mP | mP | 7
  +----+----+----+----+----+----+----+----+
6 |    |    | mP |    |    |    |    |    | 6
  +----+----+----+----+----+----+----+----+
5 |    |    |    |    |    |    |    | oQ | 5
  +----+----+----+----+----+----+----+----+
4 |    | mN |    |    | oP |    |    |    | 4
  +----+----+----+----+----+----+----+----+
3 | oN |    |    |    |    |    |    |    | 3
  +----+----+----+----+----+----+----+----+
2 | oP | oP | oP | oP |    | oP | oP | oP | 2
  +----+----+----+----+----+----+----+----+
1 | oR |    | oB |    | oK | oB | oN | oR | 1
  +----+----+----+----+----+----+----+----+
    a    b    c    d    e    f    g   h

    a    b    c    d    e    f    g    h
  +----+----+----+----+----+----+----+----+
8 | mR |    | mB | mQ | mK | mB | mN | mR | 8
  +----+----+----+----+----+----+----+----+
7 | mP | mP |    | mP | mP | mP | mP | mP | 7
  +----+----+----+----+----+----+----+----+
6 |    |    | mP |    |    |    |    |    | 6
  +----+----+----+----+----+----+----+----+
5 |    |    |    |    |    |    |    | oQ | 5
  +----+----+----+----+----+----+----+----+
4 |    | mN |    |    | oP |    |    |    | 4
  +----+----+----+----+----+----+----+----+
3 | oN |    |    |    |    | oN |    |    | 3
  +----+----+----+----+----+----+----+----+
2 | oP | oP | oP | oP |    | oP | oP | oP | 2
  +----+----+----+----+----+----+----+----+
1 | oR |    | oB |    | oK | oB |    | oR | 1
  +----+----+----+----+----+----+----+----+
    a    b    c    d    e    f    g   h

    a    b    c    d    e    f    g    h
  +----+----+----+----+----+----+----+----+
8 | mR |    | mB | mQ | mK | mB | mN | mR | 8
  +----+----+----+----+----+----+----+----+
7 | mP |    |    | mP | mP | mP | mP | mP | 7
  +----+----+----+----+----+----+----+----+
6 |    |    | mP |    |    |    |    |    | 6
  +----+----+----+----+----+----+----+----+
5 |    | mP |    |    |    |    |    | oQ | 5
  +----+----+----+----+----+----+----+----+
4 |    | mN |    |    | oP |    |    |    | 4
  +----+----+----+----+----+----+----+----+
3 | oN |    |    |    |    | oN |    |    | 3
  +----+----+----+----+----+----+----+----+
2 | oP | oP | oP | oP |    | oP | oP | oP | 2
  +----+----+----+----+----+----+----+----+
1 | oR |    | oB |    | oK | oB |    | oR | 1
  +----+----+----+----+----+----+----+----+
    a    b    c    d    e    f    g   h

    a    b    c    d    e    f    g    h
  +----+----+----+----+----+----+----+----+
8 | mR |    | mB | mQ | mK | mB | mN | mR | 8
  +----+----+----+----+----+----+----+----+
7 | mP |    |    | mP | mP | mP | mP | mP | 7
  +----+----+----+----+----+----+----+----+
6 |    |    | mP |    |    |    |    |    | 6
  +----+----+----+----+----+----+----+----+
5 |    | mP |    |    |    |    |    | oQ | 5
  +----+----+----+----+----+----+----+----+
4 |    | mN |    | oP | oP |    |    |    | 4
  +----+----+----+----+----+----+----+----+
3 | oN |    |    |    |    | oN |    |    | 3
  +----+----+----+----+----+----+----+----+
2 | oP | oP | oP |    |    | oP | oP | oP | 2
  +----+----+----+----+----+----+----+----+
1 | oR |    | oB |    | oK | oB |    | oR | 1
  +----+----+----+----+----+----+----+----+
    a    b    c    d    e    f    g   h

    a    b    c    d    e    f    g    h
  +----+----+----+----+----+----+----+----+
8 | mR |    | mB | mQ | mK | mB | mN | mR | 8
  +----+----+----+----+----+----+----+----+
7 | mP |    |    | mP | mP | mP | mP | mP | 7
  +----+----+----+----+----+----+----+----+
6 |    |    | mP |    |    |    |    |    | 6
  +----+----+----+----+----+----+----+----+
5 |    | mP |    |    |    |    |    | oQ | 5
  +----+----+----+----+----+----+----+----+
4 |    | mN |    | oP | oP |    |    |    | 4
  +----+----+----+----+----+----+----+----+
3 | oN |    |    |    |    | oN |    |    | 3
  +----+----+----+----+----+----+----+----+
2 | oP | oP | oP |    |    | oP | oP | oP | 2
  +----+----+----+----+----+----+----+----+
1 | oR |    | oB |    | oK | oB |    | oR | 1
  +----+----+----+----+----+----+----+----+
    a    b    c    d    e    f    g   h

random move: d7d6
Move written to championship/lizzie-iii-chess-ai/move.csv successfully!
eval: -521
qrbkqrbkqrbkqrbkResult
Move: f3g1, Score: -80
Move: f3h4, Score: -90
Move: d4d3, Score: -110
Move: e4e3, Score: -110
Move: e1d2, Score: -120
Move: e1e2, Score: -120
Move: f3d2, Score: -120
Move: f3g5, Score: -120
Move: a3b1, Score: -120
Move: h5h3, Score: -125
Move: h5h6, Score: -125
Move: h1g1, Score: -130
Move: a1b1, Score: -130
Move: h5h4, Score: -130
Move: e1d1, Score: -130
Move: f3e5, Score: -140
Move: c1d2, Score: -140
Move: h5g4, Score: -140
Move: c1h6, Score: -140
Move: f1e2, Score: -140
Move: h5g6, Score: -140
Move: h5g5, Score: -145
Move: h5f5, Score: -150
Move: h5c5, Score: -150
Move: h5e5, Score: -155
Move: h5d5, Score: -155
Move: c1f4, Score: -160
Move: f1c4, Score: -160
Move: f1d3, Score: -160
Move: c1g5, Score: -160
Move: c1e3, Score: -160
Move: a3c4, Score: -175
Move: h5h7, Score: -230
Move: h5b5, Score: -245
Move: f1b5, Score: -260
Move: a3b5, Score: -260
Move: g2g1k, Score: -280
Move: b2b1k, Score: -280
Move: g2g1b, Score: -300
Move: b2b1b, Score: -300
Move: g2g1r, Score: -520
Move: b2b1r, Score: -520
Move: g2g1q, Score: -910
Move: b2b1q, Score: -910
[32;1m[Game] [0mPlayer's error code: 0
[32;1m[Game] [0mChecking move validity...
[32;1m[Board] [0mInitializing board...
[32;1m[Board] [0mLoading history file `championship/lizzie-iii-chess-ai/history.csv`...
[32;1m[Board] [0mLoaded 9 move(s).
[32;1m[Board] [0mLoading move file `championship/lizzie-iii-chess-ai/move.csv`...
[32;1m[Board] [0mBlack player is playing d7 to d6.
[32;1m[Board] [0m
[32;1m[Board] [0m    a b c d e f g h 
[32;1m[Board] [0m  -------------------
[32;1m[Board] [0m8 ||[30;1mr[0m| |[30;1mb[0m|[30;1mQ[0m|[30;1mK[0m|[30;1mb[0m|[30;1mk[0m|[30;1mr[0m|| 8
[32;1m[Board] [0m  -------------------
[32;1m[Board] [0m7 ||[30;1mp[0m|[7;1m [0m| |[7;1m [0m|[30;1mp[0m|[30;1mp[0m|[30;1mp[0m|[30;1mp[0m|| 7
[32;1m[Board] [0m  -------------------
[32;1m[Board] [0m6 ||[7;1m [0m| |[30;1mp[0m|[30;1mp[0m|[7;1m [0m| |[7;1m [0m| || 6
[32;1m[Board] [0m  -------------------
[32;1m[Board] [0m5 || |[30;1mp[0m| |[7;1m [0m| |[7;1m [0m| |[0;1mQ[0m|| 5
[32;1m[Board] [0m  -------------------
[32;1m[Board] [0m4 ||[7;1m [0m|[30;1mk[0m|[7;1m [0m|[0;1mp[0m|[0;1mp[0m| |[7;1m [0m| || 4
[32;1m[Board] [0m  -------------------
[32;1m[Board] [0m3 ||[0;1mk[0m|[7;1m [0m| |[7;1m [0m| |[0;1mk[0m| |[7;1m [0m|| 3
[32;1m[Board] [0m  -------------------
[32;1m[Board] [0m2 ||[0;1mp[0m|[0;1mp[0m|[0;1mp[0m| |[7;1m [0m|[0;1mp[0m|[0;1mp[0m|[0;1mp[0m|| 2
[32;1m[Board] [0m  -------------------
[32;1m[Board] [0m1 ||[0;1mr[0m|[7;1m [0m|[0;1mb[0m|[7;1m [0m|[0;1mK[0m|[0;1mb[0m| |[0;1mr[0m|| 1
[32;1m[Board] [0m  -------------------
[32;1m[Board] [0m    a b c d e f g h
[32;1m[Board] [0m
[32;1m[Referee] [0mThis is the turn of the White player...
Input file: championship/lizzie-iii-chess-ai/history.csv
Output file: championship/lizzie-iii-chess-ai/move.csv
We are playing as White
8 | [1;31mR[0m [1;30m_[0m [1;31mB[0m [1;31mQ[0m [1;31mK[0m [1;31mB[0m [1;31mN[0m [1;31mR[0m 
7 | [1;31mP[0m [1;30m_[0m [1;30m_[0m [1;30m_[0m [1;31mP[0m [1;31mP[0m [1;31mP[0m [1;31mP[0m 
6 | [1;30m_[0m [1;30m_[0m [1;31mP[0m [1;31mP[0m [1;30m_[0m [1;30m_[0m [1;30m_[0m [1;30m_[0m 
5 | [1;30m_[0m [1;31mP[0m [1;30m_[0m [1;30m_[0m [1;30m_[0m [1;30m_[0m [1;30m_[0m [1;32mQ[0m 
4 | [1;30m_[0m [1;31mN[0m [1;30m_[0m [1;32mP[0m [1;32mP[0m [1;30m_[0m [1;30m_[0m [1;30m_[0m 
3 | [1;32mN[0m [1;30m_[0m [1;30m_[0m [1;30m_[0m [1;30m_[0m [1;32mN[0m [1;30m_[0m [1;30m_[0m 
2 | [1;32mP[0m [1;32mP[0m [1;32mP[0m [1;30m_[0m [1;30m_[0m [1;32mP[0m [1;32mP[0m [1;32mP[0m 
1 | [1;32mR[0m [1;30m_[0m [1;32mB[0m [1;30m_[0m [1;32mK[0m [1;32mB[0m [1;30m_[0m [1;32mR[0m 
-------------------
  | A B C D E F G H 

It is white's turn to play.
Best move: c1d2
Evaluation: 275
Node count: 102086

Total time: 3913.63 ms
[32;1m[Game] [0mPlayer's error code: 0
[32;1m[Game] [0mChecking move validity...
[32;1m[Board] [0mInitializing board...
[32;1m[Board] [0mLoading history file `championship/lizzie-iii-chess-ai/history.csv`...
[32;1m[Board] [0mLoaded 10 move(s).
[32;1m[Board] [0mLoading move file `championship/lizzie-iii-chess-ai/move.csv`...
[32;1m[Board] [0mWhite player is playing c1 to d2.
[32;1m[Board] [0m
[32;1m[Board] [0m    a b c d e f g h 
[32;1m[Board] [0m  -------------------
[32;1m[Board] [0m8 ||[30;1mr[0m| |[30;1mb[0m|[30;1mQ[0m|[30;1mK[0m|[30;1mb[0m|[30;1mk[0m|[30;1mr[0m|| 8
[32;1m[Board] [0m  -------------------
[32;1m[Board] [0m7 ||[30;1mp[0m|[7;1m [0m| |[7;1m [0m|[30;1mp[0m|[30;1mp[0m|[30;1mp[0m|[30;1mp[0m|| 7
[32;1m[Board] [0m  -------------------
[32;1m[Board] [0m6 ||[7;1m [0m| |[30;1mp[0m|[30;1mp[0m|[7;1m [0m| |[7;1m [0m| || 6
[32;1m[Board] [0m  -------------------
[32;1m[Board] [0m5 || |[30;1mp[0m| |[7;1m [0m| |[7;1m [0m| |[0;1mQ[0m|| 5
[32;1m[Board] [0m  -------------------
[32;1m[Board] [0m4 ||[7;1m [0m|[30;1mk[0m|[7;1m [0m|[0;1mp[0m|[0;1mp[0m| |[7;1m [0m| || 4
[32;1m[Board] [0m  -------------------
[32;1m[Board] [0m3 ||[0;1mk[0m|[7;1m [0m| |[7;1m [0m| |[0;1mk[0m| |[7;1m [0m|| 3
[32;1m[Board] [0m  -------------------
[32;1m[Board] [0m2 ||[0;1mp[0m|[0;1mp[0m|[0;1mp[0m|[0;1mb[0m|[7;1m [0m|[0;1mp[0m|[0;1mp[0m|[0;1mp[0m|| 2
[32;1m[Board] [0m  -------------------
[32;1m[Board] [0m1 ||[0;1mr[0m|[7;1m [0m| |[7;1m [0m|[0;1mK[0m|[0;1mb[0m| |[0;1mr[0m|| 1
[32;1m[Board] [0m  -------------------
[32;1m[Board] [0m    a b c d e f g h
[32;1m[Board] [0m
[32;1m[Referee] [0mThis is the turn of the Black player...
5    a    b    c    d    e    f    g    h
  +----+----+----+----+----+----+----+----+
8 | mR | mN | mB | mQ | mK | mB | mN | mR | 8
  +----+----+----+----+----+----+----+----+
7 | mP | mP | mP | mP | mP | mP | mP | mP | 7
  +----+----+----+----+----+----+----+----+
6 |    |    |    |    |    |    |    |    | 6
  +----+----+----+----+----+----+----+----+
5 |    |    |    |    |    |    |    |    | 5
  +----+----+----+----+----+----+----+----+
4 |    |    |    |    | oP |    |    |    | 4
  +----+----+----+----+----+----+----+----+
3 |    |    |    |    |    |    |    |    | 3
  +----+----+----+----+----+----+----+----+
2 | oP | oP | oP | oP |    | oP | oP | oP | 2
  +----+----+----+----+----+----+----+----+
1 | oR | oN | oB | oQ | oK | oB | oN | oR | 1
  +----+----+----+----+----+----+----+----+
    a    b    c    d    e    f    g   h

    a    b    c    d    e    f    g    h
  +----+----+----+----+----+----+----+----+
8 | mR |    | mB | mQ | mK | mB | mN | mR | 8
  +----+----+----+----+----+----+----+----+
7 | mP | mP | mP | mP | mP | mP | mP | mP | 7
  +----+----+----+----+----+----+----+----+
6 | mN |    |    |    |    |    |    |    | 6
  +----+----+----+----+----+----+----+----+
5 |    |    |    |    |    |    |    |    | 5
  +----+----+----+----+----+----+----+----+
4 |    |    |    |    | oP |    |    |    | 4
  +----+----+----+----+----+----+----+----+
3 |    |    |    |    |    |    |    |    | 3
  +----+----+----+----+----+----+----+----+
2 | oP | oP | oP | oP |    | oP | oP | oP | 2
  +----+----+----+----+----+----+----+----+
1 | oR | oN | oB | oQ | oK | oB | oN | oR | 1
  +----+----+----+----+----+----+----+----+
    a    b    c    d    e    f    g   h

    a    b    c    d    e    f    g    h
  +----+----+----+----+----+----+----+----+
8 | mR |    | mB | mQ | mK | mB | mN | mR | 8
  +----+----+----+----+----+----+----+----+
7 | mP | mP | mP | mP | mP | mP | mP | mP | 7
  +----+----+----+----+----+----+----+----+
6 | mN |    |    |    |    |    |    |    | 6
  +----+----+----+----+----+----+----+----+
5 |    |    |    |    |    |    |    | oQ | 5
  +----+----+----+----+----+----+----+----+
4 |    |    |    |    | oP |    |    |    | 4
  +----+----+----+----+----+----+----+----+
3 |    |    |    |    |    |    |    |    | 3
  +----+----+----+----+----+----+----+----+
2 | oP | oP | oP | oP |    | oP | oP | oP | 2
  +----+----+----+----+----+----+----+----+
1 | oR | oN | oB |    | oK | oB | oN | oR | 1
  +----+----+----+----+----+----+----+----+
    a    b    c    d    e    f    g   h

    a    b    c    d    e    f    g    h
  +----+----+----+----+----+----+----+----+
8 | mR |    | mB | mQ | mK | mB | mN | mR | 8
  +----+----+----+----+----+----+----+----+
7 | mP | mP | mP | mP | mP | mP | mP | mP | 7
  +----+----+----+----+----+----+----+----+
6 |    |    |    |    |    |    |    |    | 6
  +----+----+----+----+----+----+----+----+
5 |    |    |    |    |    |    |    | oQ | 5
  +----+----+----+----+----+----+----+----+
4 |    | mN |    |    | oP |    |    |    | 4
  +----+----+----+----+----+----+----+----+
3 |    |    |    |    |    |    |    |    | 3
  +----+----+----+----+----+----+----+----+
2 | oP | oP | oP | oP |    | oP | oP | oP | 2
  +----+----+----+----+----+----+----+----+
1 | oR | oN | oB |    | oK | oB | oN | oR | 1
  +----+----+----+----+----+----+----+----+
    a    b    c    d    e    f    g   h

    a    b    c    d    e    f    g    h
  +----+----+----+----+----+----+----+----+
8 | mR |    | mB | mQ | mK | mB | mN | mR | 8
  +----+----+----+----+----+----+----+----+
7 | mP | mP | mP | mP | mP | mP | mP | mP | 7
  +----+----+----+----+----+----+----+----+
6 |    |    |    |    |    |    |    |    | 6
  +----+----+----+----+----+----+----+----+
5 |    |    |    |    |    |    |    | oQ | 5
  +----+----+----+----+----+----+----+----+
4 |    | mN |    |    | oP |    |    |    | 4
  +----+----+----+----+----+----+----+----+
3 | oN |    |    |    |    |    |    |    | 3
  +----+----+----+----+----+----+----+----+
2 | oP | oP | oP | oP |    | oP | oP | oP | 2
  +----+----+----+----+----+----+----+----+
1 | oR |    | oB |    | oK | oB | oN | oR | 1
  +----+----+----+----+----+----+----+----+
    a    b    c    d    e    f    g   h

    a    b    c    d    e    f    g    h
  +----+----+----+----+----+----+----+----+
8 | mR |    | mB | mQ | mK | mB | mN | mR | 8
  +----+----+----+----+----+----+----+----+
7 | mP | mP |    | mP | mP | mP | mP | mP | 7
  +----+----+----+----+----+----+----+----+
6 |    |    | mP |    |    |    |    |    | 6
  +----+----+----+----+----+----+----+----+
5 |    |    |    |    |    |    |    | oQ | 5
  +----+----+----+----+----+----+----+----+
4 |    | mN |    |    | oP |    |    |    | 4
  +----+----+----+----+----+----+----+----+
3 | oN |    |    |    |    |    |    |    | 3
  +----+----+----+----+----+----+----+----+
2 | oP | oP | oP | oP |    | oP | oP | oP | 2
  +----+----+----+----+----+----+----+----+
1 | oR |    | oB |    | oK | oB | oN | oR | 1
  +----+----+----+----+----+----+----+----+
    a    b    c    d    e    f    g   h

    a    b    c    d    e    f    g    h
  +----+----+----+----+----+----+----+----+
8 | mR |    | mB | mQ | mK | mB | mN | mR | 8
  +----+----+----+----+----+----+----+----+
7 | mP | mP |    | mP | mP | mP | mP | mP | 7
  +----+----+----+----+----+----+----+----+
6 |    |    | mP |    |    |    |    |    | 6
  +----+----+----+----+----+----+----+----+
5 |    |    |    |    |    |    |    | oQ | 5
  +----+----+----+----+----+----+----+----+
4 |    | mN |    |    | oP |    |    |    | 4
  +----+----+----+----+----+----+----+----+
3 | oN |    |    |    |    | oN |    |    | 3
  +----+----+----+----+----+----+----+----+
2 | oP | oP | oP | oP |    | oP | oP | oP | 2
  +----+----+----+----+----+----+----+----+
1 | oR |    | oB |    | oK | oB |    | oR | 1
  +----+----+----+----+----+----+----+----+
    a    b    c    d    e    f    g   h

    a    b    c    d    e    f    g    h
  +----+----+----+----+----+----+----+----+
8 | mR |    | mB | mQ | mK | mB | mN | mR | 8
  +----+----+----+----+----+----+----+----+
7 | mP |    |    | mP | mP | mP | mP | mP | 7
  +----+----+----+----+----+----+----+----+
6 |    |    | mP |    |    |    |    |    | 6
  +----+----+----+----+----+----+----+----+
5 |    | mP |    |    |    |    |    | oQ | 5
  +----+----+----+----+----+----+----+----+
4 |    | mN |    |    | oP |    |    |    | 4
  +----+----+----+----+----+----+----+----+
3 | oN |    |    |    |    | oN |    |    | 3
  +----+----+----+----+----+----+----+----+
2 | oP | oP | oP | oP |    | oP | oP | oP | 2
  +----+----+----+----+----+----+----+----+
1 | oR |    | oB |    | oK | oB |    | oR | 1
  +----+----+----+----+----+----+----+----+
    a    b    c    d    e    f    g   h

    a    b    c    d    e    f    g    h
  +----+----+----+----+----+----+----+----+
8 | mR |    | mB | mQ | mK | mB | mN | mR | 8
  +----+----+----+----+----+----+----+----+
7 | mP |    |    | mP | mP | mP | mP | mP | 7
  +----+----+----+----+----+----+----+----+
6 |    |    | mP |    |    |    |    |    | 6
  +----+----+----+----+----+----+----+----+
5 |    | mP |    |    |    |    |    | oQ | 5
  +----+----+----+----+----+----+----+----+
4 |    | mN |    | oP | oP |    |    |    | 4
  +----+----+----+----+----+----+----+----+
3 | oN |    |    |    |    | oN |    |    | 3
  +----+----+----+----+----+----+----+----+
2 | oP | oP | oP |    |    | oP | oP | oP | 2
  +----+----+----+----+----+----+----+----+
1 | oR |    | oB |    | oK | oB |    | oR | 1
  +----+----+----+----+----+----+----+----+
    a    b    c    d    e    f    g   h

    a    b    c    d    e    f    g    h
  +----+----+----+----+----+----+----+----+
8 | mR |    | mB | mQ | mK | mB | mN | mR | 8
  +----+----+----+----+----+----+----+----+
7 | mP |    |    |    | mP | mP | mP | mP | 7
  +----+----+----+----+----+----+----+----+
6 |    |    | mP | mP |    |    |    |    | 6
  +----+----+----+----+----+----+----+----+
5 |    | mP |    |    |    |    |    | oQ | 5
  +----+----+----+----+----+----+----+----+
4 |    | mN |    | oP | oP |    |    |    | 4
  +----+----+----+----+----+----+----+----+
3 | oN |    |    |    |    | oN |    |    | 3
  +----+----+----+----+----+----+----+----+
2 | oP | oP | oP |    |    | oP | oP | oP | 2
  +----+----+----+----+----+----+----+----+
1 | oR |    | oB |    | oK | oB |    | oR | 1
  +----+----+----+----+----+----+----+----+
    a    b    c    d    e    f    g   h

    a    b    c    d    e    f    g    h
  +----+----+----+----+----+----+----+----+
8 | mR |    | mB | mQ | mK | mB | mN | mR | 8
  +----+----+----+----+----+----+----+----+
7 | mP |    |    |    | mP | mP | mP | mP | 7
  +----+----+----+----+----+----+----+----+
6 |    |    | mP | mP |    |    |    |    | 6
  +----+----+----+----+----+----+----+----+
5 |    | mP |    |    |    |    |    | oQ | 5
  +----+----+----+----+----+----+----+----+
4 |    | mN |    | oP | oP |    |    |    | 4
  +----+----+----+----+----+----+----+----+
3 | oN |    |    |    |    | oN |    |    | 3
  +----+----+----+----+----+----+----+----+
2 | oP | oP | oP | oB |    | oP | oP | oP | 2
  +----+----+----+----+----+----+----+----+
1 | oR |    |    |    | oK | oB |    | oR | 1
  +----+----+----+----+----+----+----+----+
    a    b    c    d    e    f    g   h

    a    b    c    d    e    f    g    h
  +----+----+----+----+----+----+----+----+
8 | mR |    | mB | mQ | mK | mB | mN | mR | 8
  +----+----+----+----+----+----+----+----+
7 | mP |    |    |    | mP | mP | mP | mP | 7
  +----+----+----+----+----+----+----+----+
6 |    |    | mP | mP |    |    |    |    | 6
  +----+----+----+----+----+----+----+----+
5 |    | mP |    |    |    |    |    | oQ | 5
  +----+----+----+----+----+----+----+----+
4 |    | mN |    | oP | oP |    |    |    | 4
  +----+----+----+----+----+----+----+----+
3 | oN |    |    |    |    | oN |    |    | 3
  +----+----+----+----+----+----+----+----+
2 | oP | oP | oP | oB |    | oP | oP | oP | 2
  +----+----+----+----+----+----+----+----+
1 | oR |    |    |    | oK | oB |    | oR | 1
  +----+----+----+----+----+----+----+----+
    a    b    c    d    e    f    g   h

random move: c8f5
Move written to championship/lizzie-iii-chess-ai/move.csv successfully!
eval: -455
qrbkqrbkqrbkqrbkqrbkqrbkResult
Move: f3g1, Score: -70
Move: f3h4, Score: -80
Move: e4e3, Score: -100
Move: d4d3, Score: -100
Move: d2c1, Score: -110
Move: a3b1, Score: -110
Move: f3g5, Score: -110
Move: e1e2, Score: -110
Move: h5h3, Score: -115
Move: h5h6, Score: -115
Move: h5h4, Score: -120
Move: d2h6, Score: -120
Move: e1d1, Score: -120
Move: a1b1, Score: -120
Move: a1c1, Score: -120
Move: a1d1, Score: -120
Move: h1g1, Score: -120
Move: f3e5, Score: -130
Move: f1e2, Score: -130
Move: h5g6, Score: -130
Move: h5g4, Score: -130
Move: d2c3, Score: -135
Move: h5g5, Score: -135
Move: d2e3, Score: -140
Move: h5f5, Score: -140
Move: h5c5, Score: -140
Move: d2g5, Score: -140
Move: d2f4, Score: -140
Move: h5e5, Score: -145
Move: h5d5, Score: -145
Move: f1d3, Score: -150
Move: f1c4, Score: -150
Move: a3c4, Score: -165
Move: h5h7, Score: -220
Move: h5b5, Score: -235
Move: f1b5, Score: -250
Move: a3b5, Score: -250
Move: b2b1k, Score: -270
Move: g2g1k, Score: -270
Move: c2c1k, Score: -280
Move: g2g1b, Score: -290
Move: c2c1b, Score: -290
Move: b2b1b, Score: -290
Move: d2b4, Score: -435
Move: g2g1r, Score: -510
Move: c2c1r, Score: -510
Move: b2b1r, Score: -510
Move: g2g1q, Score: -900
Move: c2c1q, Score: -900
Move: b2b1q, Score: -900
[32;1m[Game] [0mPlayer's error code: 0
[32;1m[Game] [0mChecking move validity...
[32;1m[Board] [0mInitializing board...
[32;1m[Board] [0mLoading history file `championship/lizzie-iii-chess-ai/history.csv`...
[32;1m[Board] [0mLoaded 11 move(s).
[32;1m[Board] [0mLoading move file `championship/lizzie-iii-chess-ai/move.csv`...
[32;1m[Board] [0mBlack player is playing c8 to f5.
[32;1m[Board] [0m
[32;1m[Board] [0m    a b c d e f g h 
[32;1m[Board] [0m  -------------------
[32;1m[Board] [0m8 ||[30;1mr[0m| |[7;1m [0m|[30;1mQ[0m|[30;1mK[0m|[30;1mb[0m|[30;1mk[0m|[30;1mr[0m|| 8
[32;1m[Board] [0m  -------------------
[32;1m[Board] [0m7 ||[30;1mp[0m|[7;1m [0m| |[7;1m [0m|[30;1mp[0m|[30;1mp[0m|[30;1mp[0m|[30;1mp[0m|| 7
[32;1m[Board] [0m  -------------------
[32;1m[Board] [0m6 ||[7;1m [0m| |[30;1mp[0m|[30;1mp[0m|[7;1m [0m| |[7;1m [0m| || 6
[32;1m[Board] [0m  -------------------
[32;1m[Board] [0m5 || |[30;1mp[0m| |[7;1m [0m| |[30;1mb[0m| |[0;1mQ[0m|| 5
[32;1m[Board] [0m  -------------------
[32;1m[Board] [0m4 ||[7;1m [0m|[30;1mk[0m|[7;1m [0m|[0;1mp[0m|[0;1mp[0m| |[7;1m [0m| || 4
[32;1m[Board] [0m  -------------------
[32;1m[Board] [0m3 ||[0;1mk[0m|[7;1m [0m| |[7;1m [0m| |[0;1mk[0m| |[7;1m [0m|| 3
[32;1m[Board] [0m  -------------------
[32;1m[Board] [0m2 ||[0;1mp[0m|[0;1mp[0m|[0;1mp[0m|[0;1mb[0m|[7;1m [0m|[0;1mp[0m|[0;1mp[0m|[0;1mp[0m|| 2
[32;1m[Board] [0m  -------------------
[32;1m[Board] [0m1 ||[0;1mr[0m|[7;1m [0m| |[7;1m [0m|[0;1mK[0m|[0;1mb[0m| |[0;1mr[0m|| 1
[32;1m[Board] [0m  -------------------
[32;1m[Board] [0m    a b c d e f g h
[32;1m[Board] [0m
[32;1m[Referee] [0mThis is the turn of the White player...
Input file: championship/lizzie-iii-chess-ai/history.csv
Output file: championship/lizzie-iii-chess-ai/move.csv
We are playing as White
8 | [1;31mR[0m [1;30m_[0m [1;30m_[0m [1;31mQ[0m [1;31mK[0m [1;31mB[0m [1;31mN[0m [1;31mR[0m 
7 | [1;31mP[0m [1;30m_[0m [1;30m_[0m [1;30m_[0m [1;31mP[0m [1;31mP[0m [1;31mP[0m [1;31mP[0m 
6 | [1;30m_[0m [1;30m_[0m [1;31mP[0m [1;31mP[0m [1;30m_[0m [1;30m_[0m [1;30m_[0m [1;30m_[0m 
5 | [1;30m_[0m [1;31mP[0m [1;30m_[0m [1;30m_[0m [1;30m_[0m [1;31mB[0m [1;30m_[0m [1;32mQ[0m 
4 | [1;30m_[0m [1;31mN[0m [1;30m_[0m [1;32mP[0m [1;32mP[0m [1;30m_[0m [1;30m_[0m [1;30m_[0m 
3 | [1;32mN[0m [1;30m_[0m [1;30m_[0m [1;30m_[0m [1;30m_[0m [1;32mN[0m [1;30m_[0m [1;30m_[0m 
2 | [1;32mP[0m [1;32mP[0m [1;32mP[0m [1;32mB[0m [1;30m_[0m [1;32mP[0m [1;32mP[0m [1;32mP[0m 
1 | [1;32mR[0m [1;30m_[0m [1;30m_[0m [1;30m_[0m [1;32mK[0m [1;32mB[0m [1;30m_[0m [1;32mR[0m 
-------------------
  | A B C D E F G H 

It is white's turn to play.
Best move: h5f5
Evaluation: 590
Node count: 50445

Total time: 2217.48 ms
[32;1m[Game] [0mPlayer's error code: 0
[32;1m[Game] [0mChecking move validity...
[32;1m[Board] [0mInitializing board...
[32;1m[Board] [0mLoading history file `championship/lizzie-iii-chess-ai/history.csv`...
[32;1m[Board] [0mLoaded 12 move(s).
[32;1m[Board] [0mLoading move file `championship/lizzie-iii-chess-ai/move.csv`...
[32;1m[Board] [0mWhite player is playing h5 to f5.
[32;1m[Board] [0m[5;1mWhite Queen is taking Black Bishop.[0m
[32;1m[Board] [0m
[32;1m[Board] [0m    a b c d e f g h 
[32;1m[Board] [0m  -------------------
[32;1m[Board] [0m8 ||[30;1mr[0m| |[7;1m [0m|[30;1mQ[0m|[30;1mK[0m|[30;1mb[0m|[30;1mk[0m|[30;1mr[0m|| 8
[32;1m[Board] [0m  -------------------
[32;1m[Board] [0m7 ||[30;1mp[0m|[7;1m [0m| |[7;1m [0m|[30;1mp[0m|[30;1mp[0m|[30;1mp[0m|[30;1mp[0m|| 7
[32;1m[Board] [0m  -------------------
[32;1m[Board] [0m6 ||[7;1m [0m| |[30;1mp[0m|[30;1mp[0m|[7;1m [0m| |[7;1m [0m| || 6
[32;1m[Board] [0m  -------------------
[32;1m[Board] [0m5 || |[30;1mp[0m| |[7;1m [0m| |[0;1mQ[0m| |[7;1m [0m|| 5
[32;1m[Board] [0m  -------------------
[32;1m[Board] [0m4 ||[7;1m [0m|[30;1mk[0m|[7;1m [0m|[0;1mp[0m|[0;1mp[0m| |[7;1m [0m| || 4
[32;1m[Board] [0m  -------------------
[32;1m[Board] [0m3 ||[0;1mk[0m|[7;1m [0m| |[7;1m [0m| |[0;1mk[0m| |[7;1m [0m|| 3
[32;1m[Board] [0m  -------------------
[32;1m[Board] [0m2 ||[0;1mp[0m|[0;1mp[0m|[0;1mp[0m|[0;1mb[0m|[7;1m [0m|[0;1mp[0m|[0;1mp[0m|[0;1mp[0m|| 2
[32;1m[Board] [0m  -------------------
[32;1m[Board] [0m1 ||[0;1mr[0m|[7;1m [0m| |[7;1m [0m|[0;1mK[0m|[0;1mb[0m| |[0;1mr[0m|| 1
[32;1m[Board] [0m  -------------------
[32;1m[Board] [0m    a b c d e f g h
[32;1m[Board] [0m
[32;1m[Referee] [0mThis is the turn of the Black player...
5    a    b    c    d    e    f    g    h
  +----+----+----+----+----+----+----+----+
8 | mR | mN | mB | mQ | mK | mB | mN | mR | 8
  +----+----+----+----+----+----+----+----+
7 | mP | mP | mP | mP | mP | mP | mP | mP | 7
  +----+----+----+----+----+----+----+----+
6 |    |    |    |    |    |    |    |    | 6
  +----+----+----+----+----+----+----+----+
5 |    |    |    |    |    |    |    |    | 5
  +----+----+----+----+----+----+----+----+
4 |    |    |    |    | oP |    |    |    | 4
  +----+----+----+----+----+----+----+----+
3 |    |    |    |    |    |    |    |    | 3
  +----+----+----+----+----+----+----+----+
2 | oP | oP | oP | oP |    | oP | oP | oP | 2
  +----+----+----+----+----+----+----+----+
1 | oR | oN | oB | oQ | oK | oB | oN | oR | 1
  +----+----+----+----+----+----+----+----+
    a    b    c    d    e    f    g   h

    a    b    c    d    e    f    g    h
  +----+----+----+----+----+----+----+----+
8 | mR |    | mB | mQ | mK | mB | mN | mR | 8
  +----+----+----+----+----+----+----+----+
7 | mP | mP | mP | mP | mP | mP | mP | mP | 7
  +----+----+----+----+----+----+----+----+
6 | mN |    |    |    |    |    |    |    | 6
  +----+----+----+----+----+----+----+----+
5 |    |    |    |    |    |    |    |    | 5
  +----+----+----+----+----+----+----+----+
4 |    |    |    |    | oP |    |    |    | 4
  +----+----+----+----+----+----+----+----+
3 |    |    |    |    |    |    |    |    | 3
  +----+----+----+----+----+----+----+----+
2 | oP | oP | oP | oP |    | oP | oP | oP | 2
  +----+----+----+----+----+----+----+----+
1 | oR | oN | oB | oQ | oK | oB | oN | oR | 1
  +----+----+----+----+----+----+----+----+
    a    b    c    d    e    f    g   h

    a    b    c    d    e    f    g    h
  +----+----+----+----+----+----+----+----+
8 | mR |    | mB | mQ | mK | mB | mN | mR | 8
  +----+----+----+----+----+----+----+----+
7 | mP | mP | mP | mP | mP | mP | mP | mP | 7
  +----+----+----+----+----+----+----+----+
6 | mN |    |    |    |    |    |    |    | 6
  +----+----+----+----+----+----+----+----+
5 |    |    |    |    |    |    |    | oQ | 5
  +----+----+----+----+----+----+----+----+
4 |    |    |    |    | oP |    |    |    | 4
  +----+----+----+----+----+----+----+----+
3 |    |    |    |    |    |    |    |    | 3
  +----+----+----+----+----+----+----+----+
2 | oP | oP | oP | oP |    | oP | oP | oP | 2
  +----+----+----+----+----+----+----+----+
1 | oR | oN | oB |    | oK | oB | oN | oR | 1
  +----+----+----+----+----+----+----+----+
    a    b    c    d    e    f    g   h

    a    b    c    d    e    f    g    h
  +----+----+----+----+----+----+----+----+
8 | mR |    | mB | mQ | mK | mB | mN | mR | 8
  +----+----+----+----+----+----+----+----+
7 | mP | mP | mP | mP | mP | mP | mP | mP | 7
  +----+----+----+----+----+----+----+----+
6 |    |    |    |    |    |    |    |    | 6
  +----+----+----+----+----+----+----+----+
5 |    |    |    |    |    |    |    | oQ | 5
  +----+----+----+----+----+----+----+----+
4 |    | mN |    |    | oP |    |    |    | 4
  +----+----+----+----+----+----+----+----+
3 |    |    |    |    |    |    |    |    | 3
  +----+----+----+----+----+----+----+----+
2 | oP | oP | oP | oP |    | oP | oP | oP | 2
  +----+----+----+----+----+----+----+----+
1 | oR | oN | oB |    | oK | oB | oN | oR | 1
  +----+----+----+----+----+----+----+----+
    a    b    c    d    e    f    g   h

    a    b    c    d    e    f    g    h
  +----+----+----+----+----+----+----+----+
8 | mR |    | mB | mQ | mK | mB | mN | mR | 8
  +----+----+----+----+----+----+----+----+
7 | mP | mP | mP | mP | mP | mP | mP | mP | 7
  +----+----+----+----+----+----+----+----+
6 |    |    |    |    |    |    |    |    | 6
  +----+----+----+----+----+----+----+----+
5 |    |    |    |    |    |    |    | oQ | 5
  +----+----+----+----+----+----+----+----+
4 |    | mN |    |    | oP |    |    |    | 4
  +----+----+----+----+----+----+----+----+
3 | oN |    |    |    |    |    |    |    | 3
  +----+----+----+----+----+----+----+----+
2 | oP | oP | oP | oP |    | oP | oP | oP | 2
  +----+----+----+----+----+----+----+----+
1 | oR |    | oB |    | oK | oB | oN | oR | 1
  +----+----+----+----+----+----+----+----+
    a    b    c    d    e    f    g   h

    a    b    c    d    e    f    g    h
  +----+----+----+----+----+----+----+----+
8 | mR |    | mB | mQ | mK | mB | mN | mR | 8
  +----+----+----+----+----+----+----+----+
7 | mP | mP |    | mP | mP | mP | mP | mP | 7
  +----+----+----+----+----+----+----+----+
6 |    |    | mP |    |    |    |    |    | 6
  +----+----+----+----+----+----+----+----+
5 |    |    |    |    |    |    |    | oQ | 5
  +----+----+----+----+----+----+----+----+
4 |    | mN |    |    | oP |    |    |    | 4
  +----+----+----+----+----+----+----+----+
3 | oN |    |    |    |    |    |    |    | 3
  +----+----+----+----+----+----+----+----+
2 | oP | oP | oP | oP |    | oP | oP | oP | 2
  +----+----+----+----+----+----+----+----+
1 | oR |    | oB |    | oK | oB | oN | oR | 1
  +----+----+----+----+----+----+----+----+
    a    b    c    d    e    f    g   h

    a    b    c    d    e    f    g    h
  +----+----+----+----+----+----+----+----+
8 | mR |    | mB | mQ | mK | mB | mN | mR | 8
  +----+----+----+----+----+----+----+----+
7 | mP | mP |    | mP | mP | mP | mP | mP | 7
  +----+----+----+----+----+----+----+----+
6 |    |    | mP |    |    |    |    |    | 6
  +----+----+----+----+----+----+----+----+
5 |    |    |    |    |    |    |    | oQ | 5
  +----+----+----+----+----+----+----+----+
4 |    | mN |    |    | oP |    |    |    | 4
  +----+----+----+----+----+----+----+----+
3 | oN |    |    |    |    | oN |    |    | 3
  +----+----+----+----+----+----+----+----+
[...]
6 | mN |    |    |    |    |    |    |    | 6
  +----+----+----+----+----+----+----+----+
5 |    |    |    |    |    |    |    | oQ | 5
  +----+----+----+----+----+----+----+----+
4 |    |    |    |    | oP |    |    |    | 4
  +----+----+----+----+----+----+----+----+
3 |    |    |    |    |    |    |    |    | 3
  +----+----+----+----+----+----+----+----+
2 | oP | oP | oP | oP |    | oP | oP | oP | 2
  +----+----+----+----+----+----+----+----+
1 | oR | oN | oB |    | oK | oB | oN | oR | 1
  +----+----+----+----+----+----+----+----+
    a    b    c    d    e    f    g   h

    a    b    c    d    e    f    g    h
  +----+----+----+----+----+----+----+----+
8 | mR |    | mB | mQ | mK | mB | mN | mR | 8
  +----+----+----+----+----+----+----+----+
7 | mP | mP | mP | mP | mP | mP | mP | mP | 7
  +----+----+----+----+----+----+----+----+
6 |    |    |    |    |    |    |    |    | 6
  +----+----+----+----+----+----+----+----+
5 |    |    |    |    |    |    |    | oQ | 5
  +----+----+----+----+----+----+----+----+
4 |    | mN |    |    | oP |    |    |    | 4
  +----+----+----+----+----+----+----+----+
3 |    |    |    |    |    |    |    |    | 3
  +----+----+----+----+----+----+----+----+
2 | oP | oP | oP | oP |    | oP | oP | oP | 2
  +----+----+----+----+----+----+----+----+
1 | oR | oN | oB |    | oK | oB | oN | oR | 1
  +----+----+----+----+----+----+----+----+
    a    b    c    d    e    f    g   h

    a    b    c    d    e    f    g    h
  +----+----+----+----+----+----+----+----+
8 | mR |    | mB | mQ | mK | mB | mN | mR | 8
  +----+----+----+----+----+----+----+----+
7 | mP | mP | mP | mP | mP | mP | mP | mP | 7
  +----+----+----+----+----+----+----+----+
6 |    |    |    |    |    |    |    |    | 6
  +----+----+----+----+----+----+----+----+
5 |    |    |    |    |    |    |    | oQ | 5
  +----+----+----+----+----+----+----+----+
4 |    | mN |    |    | oP |    |    |    | 4
  +----+----+----+----+----+----+----+----+
3 | oN |    |    |    |    |    |    |    | 3
  +----+----+----+----+----+----+----+----+
2 | oP | oP | oP | oP |    | oP | oP | oP | 2
  +----+----+----+----+----+----+----+----+
1 | oR |    | oB |    | oK | oB | oN | oR | 1
  +----+----+----+----+----+----+----+----+
    a    b    c    d    e    f    g   h

    a    b    c    d    e    f    g    h
  +----+----+----+----+----+----+----+----+
8 | mR |    | mB | mQ | mK | mB | mN | mR | 8
  +----+----+----+----+----+----+----+----+
7 | mP | mP |    | mP | mP | mP | mP | mP | 7
  +----+----+----+----+----+----+----+----+
6 |    |    | mP |    |    |    |    |    | 6
  +----+----+----+----+----+----+----+----+
5 |    |    |    |    |    |    |    | oQ | 5
  +----+----+----+----+----+----+----+----+
4 |    | mN |    |    | oP |    |    |    | 4
  +----+----+----+----+----+----+----+----+
3 | oN |    |    |    |    |    |    |    | 3
  +----+----+----+----+----+----+----+----+
2 | oP | oP | oP | oP |    | oP | oP | oP | 2
  +----+----+----+----+----+----+----+----+
1 | oR |    | oB |    | oK | oB | oN | oR | 1
  +----+----+----+----+----+----+----+----+
    a    b    c    d    e    f    g   h

    a    b    c    d    e    f    g    h
  +----+----+----+----+----+----+----+----+
8 | mR |    | mB | mQ | mK | mB | mN | mR | 8
  +----+----+----+----+----+----+----+----+
7 | mP | mP |    | mP | mP | mP | mP | mP | 7
  +----+----+----+----+----+----+----+----+
6 |    |    | mP |    |    |    |    |    | 6
  +----+----+----+----+----+----+----+----+
5 |    |    |    |    |    |    |    | oQ | 5
  +----+----+----+----+----+----+----+----+
4 |    | mN |    |    | oP |    |    |    | 4
  +----+----+----+----+----+----+----+----+
3 | oN |    |    |    |    | oN |    |    | 3
  +----+----+----+----+----+----+----+----+
2 | oP | oP | oP | oP |    | oP | oP | oP | 2
  +----+----+----+----+----+----+----+----+
1 | oR |    | oB |    | oK | oB |    | oR | 1
  +----+----+----+----+----+----+----+----+
    a    b    c    d    e    f    g   h

    a    b    c    d    e    f    g    h
  +----+----+----+----+----+----+----+----+
8 | mR |    | mB | mQ | mK | mB | mN | mR | 8
  +----+----+----+----+----+----+----+----+
7 | mP |    |    | mP | mP | mP | mP | mP | 7
  +----+----+----+----+----+----+----+----+
6 |    |    | mP |    |    |    |    |    | 6
  +----+----+----+----+----+----+----+----+
5 |    | mP |    |    |    |    |    | oQ | 5
  +----+----+----+----+----+----+----+----+
4 |    | mN |    |    | oP |    |    |    | 4
  +----+----+----+----+----+----+----+----+
3 | oN |    |    |    |    | oN |    |    | 3
  +----+----+----+----+----+----+----+----+
2 | oP | oP | oP | oP |    | oP | oP | oP | 2
  +----+----+----+----+----+----+----+----+
1 | oR |    | oB |    | oK | oB |    | oR | 1
  +----+----+----+----+----+----+----+----+
    a    b    c    d    e    f    g   h

    a    b    c    d    e    f    g    h
  +----+----+----+----+----+----+----+----+
8 | mR |    | mB | mQ | mK | mB | mN | mR | 8
  +----+----+----+----+----+----+----+----+
7 | mP |    |    | mP | mP | mP | mP | mP | 7
  +----+----+----+----+----+----+----+----+
6 |    |    | mP |    |    |    |    |    | 6
  +----+----+----+----+----+----+----+----+
5 |    | mP |    |    |    |    |    | oQ | 5
  +----+----+----+----+----+----+----+----+
4 |    | mN |    | oP | oP |    |    |    | 4
  +----+----+----+----+----+----+----+----+
3 | oN |    |    |    |    | oN |    |    | 3
  +----+----+----+----+----+----+----+----+
2 | oP | oP | oP |    |    | oP | oP | oP | 2
  +----+----+----+----+----+----+----+----+
1 | oR |    | oB |    | oK | oB |    | oR | 1
  +----+----+----+----+----+----+----+----+
    a    b    c    d    e    f    g   h

    a    b    c    d    e    f    g    h
  +----+----+----+----+----+----+----+----+
8 | mR |    | mB | mQ | mK | mB | mN | mR | 8
  +----+----+----+----+----+----+----+----+
7 | mP |    |    |    | mP | mP | mP | mP | 7
  +----+----+----+----+----+----+----+----+
6 |    |    | mP | mP |    |    |    |    | 6
  +----+----+----+----+----+----+----+----+
5 |    | mP |    |    |    |    |    | oQ | 5
  +----+----+----+----+----+----+----+----+
4 |    | mN |    | oP | oP |    |    |    | 4
  +----+----+----+----+----+----+----+----+
3 | oN |    |    |    |    | oN |    |    | 3
  +----+----+----+----+----+----+----+----+
2 | oP | oP | oP |    |    | oP | oP | oP | 2
  +----+----+----+----+----+----+----+----+
1 | oR |    | oB |    | oK | oB |    | oR | 1
  +----+----+----+----+----+----+----+----+
    a    b    c    d    e    f    g   h

    a    b    c    d    e    f    g    h
  +----+----+----+----+----+----+----+----+
8 | mR |    | mB | mQ | mK | mB | mN | mR | 8
  +----+----+----+----+----+----+----+----+
7 | mP |    |    |    | mP | mP | mP | mP | 7
  +----+----+----+----+----+----+----+----+
6 |    |    | mP | mP |    |    |    |    | 6
  +----+----+----+----+----+----+----+----+
5 |    | mP |    |    |    |    |    | oQ | 5
  +----+----+----+----+----+----+----+----+
4 |    | mN |    | oP | oP |    |    |    | 4
  +----+----+----+----+----+----+----+----+
3 | oN |    |    |    |    | oN |    |    | 3
  +----+----+----+----+----+----+----+----+
2 | oP | oP | oP | oB |    | oP | oP | oP | 2
  +----+----+----+----+----+----+----+----+
1 | oR |    |    |    | oK | oB |    | oR | 1
  +----+----+----+----+----+----+----+----+
    a    b    c    d    e    f    g   h

    a    b    c    d    e    f    g    h
  +----+----+----+----+----+----+----+----+
8 | mR |    |    | mQ | mK | mB | mN | mR | 8
  +----+----+----+----+----+----+----+----+
7 | mP |    |    |    | mP | mP | mP | mP | 7
  +----+----+----+----+----+----+----+----+
6 |    |    | mP | mP |    |    |    |    | 6
  +----+----+----+----+----+----+----+----+
5 |    | mP |    |    |    | mB |    | oQ | 5
  +----+----+----+----+----+----+----+----+
4 |    | mN |    | oP | oP |    |    |    | 4
  +----+----+----+----+----+----+----+----+
3 | oN |    |    |    |    | oN |    |    | 3
  +----+----+----+----+----+----+----+----+
2 | oP | oP | oP | oB |    | oP | oP | oP | 2
  +----+----+----+----+----+----+----+----+
1 | oR |    |    |    | oK | oB |    | oR | 1
  +----+----+----+----+----+----+----+----+
    a    b    c    d    e    f    g   h

    a    b    c    d    e    f    g    h
  +----+----+----+----+----+----+----+----+
8 | mR |    |    | mQ | mK | mB | mN | mR | 8
  +----+----+----+----+----+----+----+----+
7 | mP |    |    |    | mP | mP | mP | mP | 7
  +----+----+----+----+----+----+----+----+
6 |    |    | mP | mP |    |    |    |    | 6
  +----+----+----+----+----+----+----+----+
5 |    | mP |    |    |    | oQ |    |    | 5
  +----+----+----+----+----+----+----+----+
4 |    | mN |    | oP | oP |    |    |    | 4
  +----+----+----+----+----+----+----+----+
3 | oN |    |    |    |    | oN |    |    | 3
  +----+----+----+----+----+----+----+----+
2 | oP | oP | oP | oB |    | oP | oP | oP | 2
  +----+----+----+----+----+----+----+----+
1 | oR |    |    |    | oK | oB |    | oR | 1
  +----+----+----+----+----+----+----+----+
    a    b    c    d    e    f    g   h

    a    b    c    d    e    f    g    h
  +----+----+----+----+----+----+----+----+
8 | mR |    |    | mQ | mK | mB | mN | mR | 8
  +----+----+----+----+----+----+----+----+
7 | mP |    |    |    | mP | mP | mP | mP | 7
  +----+----+----+----+----+----+----+----+
6 | mN |    | mP | mP |    |    |    |    | 6
  +----+----+----+----+----+----+----+----+
5 |    | mP |    |    |    | oQ |    |    | 5
  +----+----+----+----+----+----+----+----+
4 |    |    |    | oP | oP |    |    |    | 4
  +----+----+----+----+----+----+----+----+
3 | oN |    |    |    |    | oN |    |    | 3
  +----+----+----+----+----+----+----+----+
2 | oP | oP | oP | oB |    | oP | oP | oP | 2
  +----+----+----+----+----+----+----+----+
1 | oR |    |    |    | oK | oB |    | oR | 1
  +----+----+----+----+----+----+----+----+
    a    b    c    d    e    f    g   h

    a    b    c    d    e    f    g    h
  +----+----+----+----+----+----+----+----+
8 | mR |    |    | mQ | mK | mB | mN | mR | 8
  +----+----+----+----+----+----+----+----+
7 | mP |    |    |    | mP | mP | mP | mP | 7
  +----+----+----+----+----+----+----+----+
6 | mN |    | mP | mP |    |    |    |    | 6
  +----+----+----+----+----+----+----+----+
5 |    | oB |    |    |    | oQ |    |    | 5
  +----+----+----+----+----+----+----+----+
4 |    |    |    | oP | oP |    |    |    | 4
  +----+----+----+----+----+----+----+----+
3 | oN |    |    |    |    | oN |    |    | 3
  +----+----+----+----+----+----+----+----+
2 | oP | oP | oP | oB |    | oP | oP | oP | 2
  +----+----+----+----+----+----+----+----+
1 | oR |    |    |    | oK |    |    | oR | 1
  +----+----+----+----+----+----+----+----+
    a    b    c    d    e    f    g   h

    a    b    c    d    e    f    g    h
  +----+----+----+----+----+----+----+----+
8 | mR |    |    | mQ | mK | mB | mN | mR | 8
  +----+----+----+----+----+----+----+----+
7 | mP |    |    |    | mP | mP | mP | mP | 7
  +----+----+----+----+----+----+----+----+
6 |    |    | mP | mP |    |    |    |    | 6
  +----+----+----+----+----+----+----+----+
5 |    | oB |    |    |    | oQ |    |    | 5
  +----+----+----+----+----+----+----+----+
4 |    | mN |    | oP | oP |    |    |    | 4
  +----+----+----+----+----+----+----+----+
3 | oN |    |    |    |    | oN |    |    | 3
  +----+----+----+----+----+----+----+----+
2 | oP | oP | oP | oB |    | oP | oP | oP | 2
  +----+----+----+----+----+----+----+----+
1 | oR |    |    |    | oK |    |    | oR | 1
  +----+----+----+----+----+----+----+----+
    a    b    c    d    e    f    g   h

    a    b    c    d    e    f    g    h
  +----+----+----+----+----+----+----+----+
8 | mR |    |    | mQ | mK | mB | mN | mR | 8
  +----+----+----+----+----+----+----+----+
7 | mP |    |    |    | mP | mP | mP | mP | 7
  +----+----+----+----+----+----+----+----+
6 |    |    | mP | mP |    |    |    |    | 6
  +----+----+----+----+----+----+----+----+
5 |    | oB |    |    |    | oQ |    |    | 5
  +----+----+----+----+----+----+----+----+
4 |    | oB |    | oP | oP |    |    |    | 4
  +----+----+----+----+----+----+----+----+
3 | oN |    |    |    |    | oN |    |    | 3
  +----+----+----+----+----+----+----+----+
2 | oP | oP | oP |    |    | oP | oP | oP | 2
  +----+----+----+----+----+----+----+----+
1 | oR |    |    |    | oK |    |    | oR | 1
  +----+----+----+----+----+----+----+----+
    a    b    c    d    e    f    g   h

    a    b    c    d    e    f    g    h
  +----+----+----+----+----+----+----+----+
8 | mR |    |    | mQ | mK | mB | mN | mR | 8
  +----+----+----+----+----+----+----+----+
7 | mP |    |    |    |    | mP | mP | mP | 7
  +----+----+----+----+----+----+----+----+
6 |    |    | mP | mP |    |    |    |    | 6
  +----+----+----+----+----+----+----+----+
5 |    | oB |    |    | mP | oQ |    |    | 5
  +----+----+----+----+----+----+----+----+
4 |    | oB |    | oP | oP |    |    |    | 4
  +----+----+----+----+----+----+----+----+
3 | oN |    |    |    |    | oN |    |    | 3
  +----+----+----+----+----+----+----+----+
2 | oP | oP | oP |    |    | oP | oP | oP | 2
  +----+----+----+----+----+----+----+----+
1 | oR |    |    |    | oK |    |    | oR | 1
  +----+----+----+----+----+----+----+----+
    a    b    c    d    e    f    g   h

    a    b    c    d    e    f    g    h
  +----+----+----+----+----+----+----+----+
8 | mR |    |    | mQ | mK | mB | mN | mR | 8
  +----+----+----+----+----+----+----+----+
7 | mP |    |    |    |    | mP | mP | mP | 7
  +----+----+----+----+----+----+----+----+
6 |    |    | oB | mP |    |    |    |    | 6
  +----+----+----+----+----+----+----+----+
5 |    |    |    |    | mP | oQ |    |    | 5
  +----+----+----+----+----+----+----+----+
4 |    | oB |    | oP | oP |    |    |    | 4
  +----+----+----+----+----+----+----+----+
3 | oN |    |    |    |    | oN |    |    | 3
  +----+----+----+----+----+----+----+----+
2 | oP | oP | oP |    |    | oP | oP | oP | 2
  +----+----+----+----+----+----+----+----+
1 | oR |    |    |    | oK |    |    | oR | 1
  +----+----+----+----+----+----+----+----+
    a    b    c    d    e    f    g   h

    a    b    c    d    e    f    g    h
  +----+----+----+----+----+----+----+----+
8 | mR |    |    | mQ | mK | mB | mN | mR | 8
  +----+----+----+----+----+----+----+----+
7 | mP |    |    |    |    | mP | mP | mP | 7
  +----+----+----+----+----+----+----+----+
6 |    |    | oB | mP |    |    |    |    | 6
  +----+----+----+----+----+----+----+----+
5 |    |    |    |    | mP | oQ |    |    | 5
  +----+----+----+----+----+----+----+----+
4 |    | oB |    | oP | oP |    |    |    | 4
  +----+----+----+----+----+----+----+----+
3 | oN |    |    |    |    | oN |    |    | 3
  +----+----+----+----+----+----+----+----+
2 | oP | oP | oP |    |    | oP | oP | oP | 2
  +----+----+----+----+----+----+----+----+
1 | oR |    |    |    | oK |    |    | oR | 1
  +----+----+----+----+----+----+----+----+
    a    b    c    d    e    f    g   h

random move: d8d7
Move written to championship/lizzie-iii-chess-ai/move.csv successfully!
eval: -1513
qrbkqrbkqrbkqrbkError: did not find a king which is not normal
[32;1m[Game] [0mPlayer's error code: 256
[32;1m[Game] [0mChecking move validity...
[32;1m[Board] [0mInitializing board...
[32;1m[Board] [0mLoading history file `championship/lizzie-iii-chess-ai/history.csv`...
[32;1m[Board] [0mLoaded 19 move(s).
[32;1m[Board] [0mLoading move file `championship/lizzie-iii-chess-ai/move.csv`...
[32;1m[Board] [0mBlack player is playing d8 to d7.
[32;1m[Board] [0m
[32;1m[Board] [0m    a b c d e f g h 
[32;1m[Board] [0m  -------------------
[32;1m[Board] [0m8 ||[30;1mr[0m| |[7;1m [0m| |[30;1mK[0m|[30;1mb[0m|[30;1mk[0m|[30;1mr[0m|| 8
[32;1m[Board] [0m  -------------------
[32;1m[Board] [0m7 ||[30;1mp[0m|[7;1m [0m| |[30;1mQ[0m| |[30;1mp[0m|[30;1mp[0m|[30;1mp[0m|| 7
[32;1m[Board] [0m  -------------------
[32;1m[Board] [0m6 ||[7;1m [0m| |[0;1mb[0m|[30;1mp[0m|[7;1m [0m| |[7;1m [0m| || 6
[32;1m[Board] [0m  -------------------
[32;1m[Board] [0m5 || |[7;1m [0m| |[7;1m [0m|[30;1mp[0m|[0;1mQ[0m| |[7;1m [0m|| 5
[32;1m[Board] [0m  -------------------
[32;1m[Board] [0m4 ||[7;1m [0m|[0;1mb[0m|[7;1m [0m|[0;1mp[0m|[0;1mp[0m| |[7;1m [0m| || 4
[32;1m[Board] [0m  -------------------
[32;1m[Board] [0m3 ||[0;1mk[0m|[7;1m [0m| |[7;1m [0m| |[0;1mk[0m| |[7;1m [0m|| 3
[32;1m[Board] [0m  -------------------
[32;1m[Board] [0m2 ||[0;1mp[0m|[0;1mp[0m|[0;1mp[0m| |[7;1m [0m|[0;1mp[0m|[0;1mp[0m|[0;1mp[0m|| 2
[32;1m[Board] [0m  -------------------
[32;1m[Board] [0m1 ||[0;1mr[0m|[7;1m [0m| |[7;1m [0m|[0;1mK[0m|[7;1m [0m| |[0;1mr[0m|| 1
[32;1m[Board] [0m  -------------------
[32;1m[Board] [0m    a b c d e f g h
[32;1m[Board] [0m
[32;1m[Referee] [0mThis is the turn of the White player...
Input file: championship/lizzie-iii-chess-ai/history.csv
Output file: championship/lizzie-iii-chess-ai/move.csv
We are playing as White
8 | [1;31mR[0m [1;30m_[0m [1;30m_[0m [1;30m_[0m [1;31mK[0m [1;31mB[0m [1;31mN[0m [1;31mR[0m 
7 | [1;31mP[0m [1;30m_[0m [1;30m_[0m [1;31mQ[0m [1;30m_[0m [1;31mP[0m [1;31mP[0m [1;31mP[0m 
6 | [1;30m_[0m [1;30m_[0m [1;32mB[0m [1;31mP[0m [1;30m_[0m [1;30m_[0m [1;30m_[0m [1;30m_[0m 
5 | [1;30m_[0m [1;30m_[0m [1;30m_[0m [1;30m_[0m [1;31mP[0m [1;32mQ[0m [1;30m_[0m [1;30m_[0m 
4 | [1;30m_[0m [1;32mB[0m [1;30m_[0m [1;32mP[0m [1;32mP[0m [1;30m_[0m [1;30m_[0m [1;30m_[0m 
3 | [1;32mN[0m [1;30m_[0m [1;30m_[0m [1;30m_[0m [1;30m_[0m [1;32mN[0m [1;30m_[0m [1;30m_[0m 
2 | [1;32mP[0m [1;32mP[0m [1;32mP[0m [1;30m_[0m [1;30m_[0m [1;32mP[0m [1;32mP[0m [1;32mP[0m 
1 | [1;32mR[0m [1;30m_[0m [1;30m_[0m [1;30m_[0m [1;32mK[0m [1;30m_[0m [1;30m_[0m [1;32mR[0m 
-------------------
  | A B C D E F G H 

It is white's turn to play.
Best move: f5d7
Evaluation: 100000
Node count: 106104

Total time: 2554.1 ms
[32;1m[Game] [0mPlayer's error code: 0
[32;1m[Game] [0mChecking move validity...
[32;1m[Board] [0mInitializing board...
[32;1m[Board] [0mLoading history file `championship/lizzie-iii-chess-ai/history.csv`...
[32;1m[Board] [0mLoaded 20 move(s).
[32;1m[Board] [0mLoading move file `championship/lizzie-iii-chess-ai/move.csv`...
[32;1m[Board] [0mWhite player is playing f5 to d7.
[32;1m[Board] [0m[5;1mWhite Queen is taking Black Queen.[0m
[32;1m[Board] [0m
[32;1m[Board] [0m    a b c d e f g h 
[32;1m[Board] [0m  -------------------
[32;1m[Board] [0m8 ||[30;1mr[0m| |[7;1m [0m| |[30;1mK[0m|[30;1mb[0m|[30;1mk[0m|[30;1mr[0m|| 8
[32;1m[Board] [0m  -------------------
[32;1m[Board] [0m7 ||[30;1mp[0m|[7;1m [0m| |[0;1mQ[0m| |[30;1mp[0m|[30;1mp[0m|[30;1mp[0m|| 7
[32;1m[Board] [0m  -------------------
[32;1m[Board] [0m6 ||[7;1m [0m| |[0;1mb[0m|[30;1mp[0m|[7;1m [0m| |[7;1m [0m| || 6
[32;1m[Board] [0m  -------------------
[32;1m[Board] [0m5 || |[7;1m [0m| |[7;1m [0m|[30;1mp[0m|[7;1m [0m| |[7;1m [0m|| 5
[32;1m[Board] [0m  -------------------
[32;1m[Board] [0m4 ||[7;1m [0m|[0;1mb[0m|[7;1m [0m|[0;1mp[0m|[0;1mp[0m| |[7;1m [0m| || 4
[32;1m[Board] [0m  -------------------
[32;1m[Board] [0m3 ||[0;1mk[0m|[7;1m [0m| |[7;1m [0m| |[0;1mk[0m| |[7;1m [0m|| 3
[32;1m[Board] [0m  -------------------
[32;1m[Board] [0m2 ||[0;1mp[0m|[0;1mp[0m|[0;1mp[0m| |[7;1m [0m|[0;1mp[0m|[0;1mp[0m|[0;1mp[0m|| 2
[32;1m[Board] [0m  -------------------
[32;1m[Board] [0m1 ||[0;1mr[0m|[7;1m [0m| |[7;1m [0m|[0;1mK[0m|[7;1m [0m| |[0;1mr[0m|| 1
[32;1m[Board] [0m  -------------------
[32;1m[Board] [0m    a b c d e f g h
[32;1m[Board] [0m
[32;1m[Referee] [0mThis is the turn of the Black player...
[32;1m[Board] [0m[33;1m[WARNING][0m [5;1mBlack King in checkmate![0m
[32;1m[Board] [0m[33;1m[WARNING][0m The White player wins!
