[32;1m[Board] [0mInitializing board...
[32;1m[Board] [0m
[32;1m[Board] [0m    a b c d e f g h 
[32;1m[Board] [0m  -------------------
[32;1m[Board] [0m8 ||[30;1mr[0m|[30;1mk[0m|[30;1mb[0m|[30;1mQ[0m|[30;1mK[0m|[30;1mb[0m|[30;1mk[0m|[30;1mr[0m|| 8
[32;1m[Board] [0m  -------------------
[32;1m[Board] [0m7 ||[30;1mp[0m|[30;1mp[0m|[30;1mp[0m|[30;1mp[0m|[30;1mp[0m|[30;1mp[0m|[30;1mp[0m|[30;1mp[0m|| 7
[32;1m[Board] [0m  -------------------
[32;1m[Board] [0m6 ||[7;1m [0m| |[7;1m [0m| |[7;1m [0m| |[7;1m [0m| || 6
[32;1m[Board] [0m  -------------------
[32;1m[Board] [0m5 || |[7;1m [0m| |[7;1m [0m| |[7;1m [0m| |[7;1m [0m|| 5
[32;1m[Board] [0m  -------------------
[32;1m[Board] [0m4 ||[7;1m [0m| |[7;1m [0m| |[7;1m [0m| |[7;1m [0m| || 4
[32;1m[Board] [0m  -------------------
[32;1m[Board] [0m3 || |[7;1m [0m| |[7;1m [0m| |[7;1m [0m| |[7;1m [0m|| 3
[32;1m[Board] [0m  -------------------
[32;1m[Board] [0m2 ||[0;1mp[0m|[0;1mp[0m|[0;1mp[0m|[0;1mp[0m|[0;1mp[0m|[0;1mp[0m|[0;1mp[0m|[0;1mp[0m|| 2
[32;1m[Board] [0m  -------------------
[32;1m[Board] [0m1 ||[0;1mr[0m|[0;1mk[0m|[0;1mb[0m|[0;1mQ[0m|[0;1mK[0m|[0;1mb[0m|[0;1mk[0m|[0;1mr[0m|| 1
[32;1m[Board] [0m  -------------------
[32;1m[Board] [0m    a b c d e f g h
[32;1m[Board] [0m
[32;1m[Referee] [0mThis is the turn of the White player...
Input file: championship/lizzie-iii-logic-and-proofs/history.csv
Output file: championship/lizzie-iii-logic-and-proofs/move.csv
We are playing as White
Move history:
8 | R N B Q K B N R 
7 | P P P P P P P P 
6 | _ _ _ _ _ _ _ _ 
5 | _ _ _ _ _ _ _ _ 
4 | _ _ _ _ _ _ _ _ 
3 | _ _ _ _ _ _ _ _ 
2 | P P P P P P P P 
1 | R N B Q K B N R 
-------------------
  | A B C D E F G H 

It is white's turn to play.
AI's move: h2h3
Move written: h2h3
[32;1m[Game] [0mPlayer's error code: 0
[32;1m[Game] [0mChecking move validity...
[32;1m[Board] [0mInitializing board...
[32;1m[Board] [0mLoading history file `championship/lizzie-iii-logic-and-proofs/history.csv`...
[32;1m[Board] [0mLoaded 0 move(s).
[32;1m[Board] [0mLoading move file `championship/lizzie-iii-logic-and-proofs/move.csv`...
[32;1m[Board] [0mWhite player is playing h2 to h3.
[32;1m[Board] [0m
[32;1m[Board] [0m    a b c d e f g h 
[32;1m[Board] [0m  -------------------
[32;1m[Board] [0m8 ||[30;1mr[0m|[30;1mk[0m|[30;1mb[0m|[30;1mQ[0m|[30;1mK[0m|[30;1mb[0m|[30;1mk[0m|[30;1mr[0m|| 8
[32;1m[Board] [0m  -------------------
[32;1m[Board] [0m7 ||[30;1mp[0m|[30;1mp[0m|[30;1mp[0m|[30;1mp[0m|[30;1mp[0m|[30;1mp[0m|[30;1mp[0m|[30;1mp[0m|| 7
[32;1m[Board] [0m  -------------------
[32;1m[Board] [0m6 ||[7;1m [0m| |[7;1m [0m| |[7;1m [0m| |[7;1m [0m| || 6
[32;1m[Board] [0m  -------------------
[32;1m[Board] [0m5 || |[7;1m [0m| |[7;1m [0m| |[7;1m [0m| |[7;1m [0m|| 5
[32;1m[Board] [0m  -------------------
[32;1m[Board] [0m4 ||[7;1m [0m| |[7;1m [0m| |[7;1m [0m| |[7;1m [0m| || 4
[32;1m[Board] [0m  -------------------
[32;1m[Board] [0m3 || |[7;1m [0m| |[7;1m [0m| |[7;1m [0m| |[0;1mp[0m|| 3
[32;1m[Board] [0m  -------------------
[32;1m[Board] [0m2 ||[0;1mp[0m|[0;1mp[0m|[0;1mp[0m|[0;1mp[0m|[0;1mp[0m|[0;1mp[0m|[0;1mp[0m| || 2
[32;1m[Board] [0m  -------------------
[32;1m[Board] [0m1 ||[0;1mr[0m|[0;1mk[0m|[0;1mb[0m|[0;1mQ[0m|[0;1mK[0m|[0;1mb[0m|[0;1mk[0m|[0;1mr[0m|| 1
[32;1m[Board] [0m  -------------------
[32;1m[Board] [0m    a b c d e f g h
[32;1m[Board] [0m
[32;1m[Referee] [0mThis is the turn of the Black player...
[DEBUG] Input history filename: championship/lizzie-iii-logic-and-proofs/history.csv
[DEBUG] Output move file: championship/lizzie-iii-logic-and-proofs/move.csv
starting search...
searched and found best move in search: 25673
Total nodes searched: 4314
how i see the board before writing next move: Turn: Black
Enpassant: xx	Castling: WK WQ BK BQ 
   ---- ---- ---- ---- ---- ---- ---- ----
8 | r  | n  | b  | q  | k  | b  | n  | r  |
   ---- ---- ---- ---- ---- ---- ---- ----
7 | p  | p  | p  | p  | p  | p  | p  | p  |
   ---- ---- ---- ---- ---- ---- ---- ----
6 |    |    |    |    |    |    |    |    |
   ---- ---- ---- ---- ---- ---- ---- ----
5 |    |    |    |    |    |    |    |    |
   ---- ---- ---- ---- ---- ---- ---- ----
4 |    |    |    |    |    |    |    |    |
   ---- ---- ---- ---- ---- ---- ---- ----
3 |    |    |    |    |    |    |    | P  |
   ---- ---- ---- ---- ---- ---- ---- ----
2 | P  | P  | P  | P  | P  | P  | P  |    |
   ---- ---- ---- ---- ---- ---- ---- ----
1 | R  | N  | B  | Q  | K  | B  | N  | R  |
   ---- ---- ---- ---- ---- ---- ---- ----
    a    b    c    d    e    f    g    h
[DEBUG] [Parser] Wrote to ouput file championship/lizzie-iii-logic-and-proofs/move.csv move : b7b6
[32;1m[Game] [0mPlayer's error code: 0
[32;1m[Game] [0mChecking move validity...
[32;1m[Board] [0mInitializing board...
[32;1m[Board] [0mLoading history file `championship/lizzie-iii-logic-and-proofs/history.csv`...
[32;1m[Board] [0mLoaded 1 move(s).
[32;1m[Board] [0mLoading move file `championship/lizzie-iii-logic-and-proofs/move.csv`...
[32;1m[Board] [0mBlack player is playing b7 to b6.
[32;1m[Board] [0m
[32;1m[Board] [0m    a b c d e f g h 
[32;1m[Board] [0m  -------------------
[32;1m[Board] [0m8 ||[30;1mr[0m|[30;1mk[0m|[30;1mb[0m|[30;1mQ[0m|[30;1mK[0m|[30;1mb[0m|[30;1mk[0m|[30;1mr[0m|| 8
[32;1m[Board] [0m  -------------------
[32;1m[Board] [0m7 ||[30;1mp[0m|[7;1m [0m|[30;1mp[0m|[30;1mp[0m|[30;1mp[0m|[30;1mp[0m|[30;1mp[0m|[30;1mp[0m|| 7
[32;1m[Board] [0m  -------------------
[32;1m[Board] [0m6 ||[7;1m [0m|[30;1mp[0m|[7;1m [0m| |[7;1m [0m| |[7;1m [0m| || 6
[32;1m[Board] [0m  -------------------
[32;1m[Board] [0m5 || |[7;1m [0m| |[7;1m [0m| |[7;1m [0m| |[7;1m [0m|| 5
[32;1m[Board] [0m  -------------------
[32;1m[Board] [0m4 ||[7;1m [0m| |[7;1m [0m| |[7;1m [0m| |[7;1m [0m| || 4
[32;1m[Board] [0m  -------------------
[32;1m[Board] [0m3 || |[7;1m [0m| |[7;1m [0m| |[7;1m [0m| |[0;1mp[0m|| 3
[32;1m[Board] [0m  -------------------
[32;1m[Board] [0m2 ||[0;1mp[0m|[0;1mp[0m|[0;1mp[0m|[0;1mp[0m|[0;1mp[0m|[0;1mp[0m|[0;1mp[0m| || 2
[32;1m[Board] [0m  -------------------
[32;1m[Board] [0m1 ||[0;1mr[0m|[0;1mk[0m|[0;1mb[0m|[0;1mQ[0m|[0;1mK[0m|[0;1mb[0m|[0;1mk[0m|[0;1mr[0m|| 1
[32;1m[Board] [0m  -------------------
[32;1m[Board] [0m    a b c d e f g h
[32;1m[Board] [0m
[32;1m[Referee] [0mThis is the turn of the White player...
Input file: championship/lizzie-iii-logic-and-proofs/history.csv
Output file: championship/lizzie-iii-logic-and-proofs/move.csv
Turn of: white
Succesful move
h2h3
8 | R N B Q K B N R 
7 | P P P P P P P P 
6 | _ _ _ _ _ _ _ _ 
5 | _ _ _ _ _ _ _ _ 
4 | _ _ _ _ _ _ _ _ 
3 | _ _ _ _ _ _ _ P 
2 | P P P P P P P _ 
1 | R N B Q K B N R 
-------------------
  | A B C D E F G H 

Turn of: black
Succesful move
b7b6
8 | R N B Q K B N R 
7 | P _ P P P P P P 
6 | _ P _ _ _ _ _ _ 
5 | _ _ _ _ _ _ _ _ 
4 | _ _ _ _ _ _ _ _ 
3 | _ _ _ _ _ _ _ P 
2 | P P P P P P P _ 
1 | R N B Q K B N R 
-------------------
  | A B C D E F G H 

We are playing as White
Move history:
h2h3
b7b6
8 | R N B Q K B N R 
7 | P _ P P P P P P 
6 | _ P _ _ _ _ _ _ 
5 | _ _ _ _ _ _ _ _ 
4 | _ _ _ _ _ _ _ _ 
3 | _ _ _ _ _ _ _ P 
2 | P P P P P P P _ 
1 | R N B Q K B N R 
-------------------
  | A B C D E F G H 

It is white's turn to play.
AI's move: b2b3
Move written: b2b3
[32;1m[Game] [0mPlayer's error code: 0
[32;1m[Game] [0mChecking move validity...
[32;1m[Board] [0mInitializing board...
[32;1m[Board] [0mLoading history file `championship/lizzie-iii-logic-and-proofs/history.csv`...
[32;1m[Board] [0mLoaded 2 move(s).
[32;1m[Board] [0mLoading move file `championship/lizzie-iii-logic-and-proofs/move.csv`...
[32;1m[Board] [0mWhite player is playing b2 to b3.
[32;1m[Board] [0m
[32;1m[Board] [0m    a b c d e f g h 
[32;1m[Board] [0m  -------------------
[32;1m[Board] [0m8 ||[30;1mr[0m|[30;1mk[0m|[30;1mb[0m|[30;1mQ[0m|[30;1mK[0m|[30;1mb[0m|[30;1mk[0m|[30;1mr[0m|| 8
[32;1m[Board] [0m  -------------------
[32;1m[Board] [0m7 ||[30;1mp[0m|[7;1m [0m|[30;1mp[0m|[30;1mp[0m|[30;1mp[0m|[30;1mp[0m|[30;1mp[0m|[30;1mp[0m|| 7
[32;1m[Board] [0m  -------------------
[32;1m[Board] [0m6 ||[7;1m [0m|[30;1mp[0m|[7;1m [0m| |[7;1m [0m| |[7;1m [0m| || 6
[32;1m[Board] [0m  -------------------
[32;1m[Board] [0m5 || |[7;1m [0m| |[7;1m [0m| |[7;1m [0m| |[7;1m [0m|| 5
[32;1m[Board] [0m  -------------------
[32;1m[Board] [0m4 ||[7;1m [0m| |[7;1m [0m| |[7;1m [0m| |[7;1m [0m| || 4
[32;1m[Board] [0m  -------------------
[32;1m[Board] [0m3 || |[0;1mp[0m| |[7;1m [0m| |[7;1m [0m| |[0;1mp[0m|| 3
[32;1m[Board] [0m  -------------------
[32;1m[Board] [0m2 ||[0;1mp[0m| |[0;1mp[0m|[0;1mp[0m|[0;1mp[0m|[0;1mp[0m|[0;1mp[0m| || 2
[32;1m[Board] [0m  -------------------
[32;1m[Board] [0m1 ||[0;1mr[0m|[0;1mk[0m|[0;1mb[0m|[0;1mQ[0m|[0;1mK[0m|[0;1mb[0m|[0;1mk[0m|[0;1mr[0m|| 1
[32;1m[Board] [0m  -------------------
[32;1m[Board] [0m    a b c d e f g h
[32;1m[Board] [0m
[32;1m[Referee] [0mThis is the turn of the Black player...
[DEBUG] Input history filename: championship/lizzie-iii-logic-and-proofs/history.csv
[DEBUG] Output move file: championship/lizzie-iii-logic-and-proofs/move.csv
starting search...
searched and found best move in search: 2123272
Total nodes searched: 6721
how i see the board before writing next move: Turn: Black
Enpassant: xx	Castling: WK WQ BK BQ 
   ---- ---- ---- ---- ---- ---- ---- ----
8 | r  | n  | b  | q  | k  | b  | n  | r  |
   ---- ---- ---- ---- ---- ---- ---- ----
7 | p  |    | p  | p  | p  | p  | p  | p  |
   ---- ---- ---- ---- ---- ---- ---- ----
6 |    | p  |    |    |    |    |    |    |
   ---- ---- ---- ---- ---- ---- ---- ----
5 |    |    |    |    |    |    |    |    |
   ---- ---- ---- ---- ---- ---- ---- ----
4 |    |    |    |    |    |    |    |    |
   ---- ---- ---- ---- ---- ---- ---- ----
3 |    | P  |    |    |    |    |    | P  |
   ---- ---- ---- ---- ---- ---- ---- ----
2 | P  |    | P  | P  | P  | P  | P  |    |
   ---- ---- ---- ---- ---- ---- ---- ----
1 | R  | N  | B  | Q  | K  | B  | N  | R  |
   ---- ---- ---- ---- ---- ---- ---- ----
    a    b    c    d    e    f    g    h
[DEBUG] [Parser] Wrote to ouput file championship/lizzie-iii-logic-and-proofs/move.csv move : a7a5
[32;1m[Game] [0mPlayer's error code: 0
[32;1m[Game] [0mChecking move validity...
[32;1m[Board] [0mInitializing board...
[32;1m[Board] [0mLoading history file `championship/lizzie-iii-logic-and-proofs/history.csv`...
[32;1m[Board] [0mLoaded 3 move(s).
[32;1m[Board] [0mLoading move file `championship/lizzie-iii-logic-and-proofs/move.csv`...
[32;1m[Board] [0mBlack player is playing a7 to a5.
[32;1m[Board] [0m
[32;1m[Board] [0m    a b c d e f g h 
[32;1m[Board] [0m  -------------------
[32;1m[Board] [0m8 ||[30;1mr[0m|[30;1mk[0m|[30;1mb[0m|[30;1mQ[0m|[30;1mK[0m|[30;1mb[0m|[30;1mk[0m|[30;1mr[0m|| 8
[32;1m[Board] [0m  -------------------
[32;1m[Board] [0m7 || |[7;1m [0m|[30;1mp[0m|[30;1mp[0m|[30;1mp[0m|[30;1mp[0m|[30;1mp[0m|[30;1mp[0m|| 7
[32;1m[Board] [0m  -------------------
[32;1m[Board] [0m6 ||[7;1m [0m|[30;1mp[0m|[7;1m [0m| |[7;1m [0m| |[7;1m [0m| || 6
[32;1m[Board] [0m  -------------------
[32;1m[Board] [0m5 ||[30;1mp[0m|[7;1m [0m| |[7;1m [0m| |[7;1m [0m| |[7;1m [0m|| 5
[32;1m[Board] [0m  -------------------
[32;1m[Board] [0m4 ||[7;1m [0m| |[7;1m [0m| |[7;1m [0m| |[7;1m [0m| || 4
[32;1m[Board] [0m  -------------------
[32;1m[Board] [0m3 || |[0;1mp[0m| |[7;1m [0m| |[7;1m [0m| |[0;1mp[0m|| 3
[32;1m[Board] [0m  -------------------
[32;1m[Board] [0m2 ||[0;1mp[0m| |[0;1mp[0m|[0;1mp[0m|[0;1mp[0m|[0;1mp[0m|[0;1mp[0m| || 2
[32;1m[Board] [0m  -------------------
[32;1m[Board] [0m1 ||[0;1mr[0m|[0;1mk[0m|[0;1mb[0m|[0;1mQ[0m|[0;1mK[0m|[0;1mb[0m|[0;1mk[0m|[0;1mr[0m|| 1
[32;1m[Board] [0m  -------------------
[32;1m[Board] [0m    a b c d e f g h
[32;1m[Board] [0m
[32;1m[Referee] [0mThis is the turn of the White player...
Input file: championship/lizzie-iii-logic-and-proofs/history.csv
Output file: championship/lizzie-iii-logic-and-proofs/move.csv
Turn of: white
Succesful move
h2h3
8 | R N B Q K B N R 
7 | P P P P P P P P 
6 | _ _ _ _ _ _ _ _ 
5 | _ _ _ _ _ _ _ _ 
4 | _ _ _ _ _ _ _ _ 
3 | _ _ _ _ _ _ _ P 
2 | P P P P P P P _ 
1 | R N B Q K B N R 
-------------------
  | A B C D E F G H 

Turn of: black
Succesful move
b7b6
8 | R N B Q K B N R 
7 | P _ P P P P P P 
6 | _ P _ _ _ _ _ _ 
5 | _ _ _ _ _ _ _ _ 
4 | _ _ _ _ _ _ _ _ 
3 | _ _ _ _ _ _ _ P 
2 | P P P P P P P _ 
1 | R N B Q K B N R 
-------------------
  | A B C D E F G H 

Turn of: white
Succesful move
b2b3
8 | R N B Q K B N R 
7 | P _ P P P P P P 
6 | _ P _ _ _ _ _ _ 
5 | _ _ _ _ _ _ _ _ 
4 | _ _ _ _ _ _ _ _ 
3 | _ P _ _ _ _ _ P 
2 | P _ P P P P P _ 
1 | R N B Q K B N R 
-------------------
  | A B C D E F G H 

Turn of: black
Succesful move
a7a5
8 | R N B Q K B N R 
7 | _ _ P P P P P P 
6 | _ P _ _ _ _ _ _ 
5 | P _ _ _ _ _ _ _ 
4 | _ _ _ _ _ _ _ _ 
3 | _ P _ _ _ _ _ P 
2 | P _ P P P P P _ 
1 | R N B Q K B N R 
-------------------
  | A B C D E F G H 

We are playing as White
Move history:
h2h3
b7b6
b2b3
a7a5
8 | R N B Q K B N R 
7 | _ _ P P P P P P 
6 | _ P _ _ _ _ _ _ 
5 | P _ _ _ _ _ _ _ 
4 | _ _ _ _ _ _ _ _ 
3 | _ P _ _ _ _ _ P 
2 | P _ P P P P P _ 
1 | R N B Q K B N R 
-------------------
  | A B C D E F G H 

It is white's turn to play.
AI's move: g2g3
Move written: g2g3
[32;1m[Game] [0mPlayer's error code: 0
[32;1m[Game] [0mChecking move validity...
[32;1m[Board] [0mInitializing board...
[32;1m[Board] [0mLoading history file `championship/lizzie-iii-logic-and-proofs/history.csv`...
[32;1m[Board] [0mLoaded 4 move(s).
[32;1m[Board] [0mLoading move file `championship/lizzie-iii-logic-and-proofs/move.csv`...
[32;1m[Board] [0mWhite player is playing g2 to g3.
[32;1m[Board] [0m
[32;1m[Board] [0m    a b c d e f g h 
[32;1m[Board] [0m  -------------------
[32;1m[Board] [0m8 ||[30;1mr[0m|[30;1mk[0m|[30;1mb[0m|[30;1mQ[0m|[30;1mK[0m|[30;1mb[0m|[30;1mk[0m|[30;1mr[0m|| 8
[32;1m[Board] [0m  -------------------
[32;1m[Board] [0m7 || |[7;1m [0m|[30;1mp[0m|[30;1mp[0m|[30;1mp[0m|[30;1mp[0m|[30;1mp[0m|[30;1mp[0m|| 7
[32;1m[Board] [0m  -------------------
[32;1m[Board] [0m6 ||[7;1m [0m|[30;1mp[0m|[7;1m [0m| |[7;1m [0m| |[7;1m [0m| || 6
[32;1m[Board] [0m  -------------------
[32;1m[Board] [0m5 ||[30;1mp[0m|[7;1m [0m| |[7;1m [0m| |[7;1m [0m| |[7;1m [0m|| 5
[32;1m[Board] [0m  -------------------
[32;1m[Board] [0m4 ||[7;1m [0m| |[7;1m [0m| |[7;1m [0m| |[7;1m [0m| || 4
[32;1m[Board] [0m  -------------------
[32;1m[Board] [0m3 || |[0;1mp[0m| |[7;1m [0m| |[7;1m [0m|[0;1mp[0m|[0;1mp[0m|| 3
[32;1m[Board] [0m  -------------------
[32;1m[Board] [0m2 ||[0;1mp[0m| |[0;1mp[0m|[0;1mp[0m|[0;1mp[0m|[0;1mp[0m|[7;1m [0m| || 2
[32;1m[Board] [0m  -------------------
[32;1m[Board] [0m1 ||[0;1mr[0m|[0;1mk[0m|[0;1mb[0m|[0;1mQ[0m|[0;1mK[0m|[0;1mb[0m|[0;1mk[0m|[0;1mr[0m|| 1
[32;1m[Board] [0m  -------------------
[32;1m[Board] [0m    a b c d e f g h
[32;1m[Board] [0m
[32;1m[Referee] [0mThis is the turn of the Black player...
[DEBUG] Input history filename: championship/lizzie-iii-logic-and-proofs/history.csv
[DEBUG] Output move file: championship/lizzie-iii-logic-and-proofs/move.csv
starting search...
searched and found best move in search: 2123532
Total nodes searched: 12711
how i see the board before writing next move: Turn: Black
Enpassant: xx	Castling: WK WQ BK BQ 
   ---- ---- ---- ---- ---- ---- ---- ----
8 | r  | n  | b  | q  | k  | b  | n  | r  |
   ---- ---- ---- ---- ---- ---- ---- ----
7 |    |    | p  | p  | p  | p  | p  | p  |
   ---- ---- ---- ---- ---- ---- ---- ----
6 |    | p  |    |    |    |    |    |    |
   ---- ---- ---- ---- ---- ---- ---- ----
5 | p  |    |    |    |    |    |    |    |
   ---- ---- ---- ---- ---- ---- ---- ----
4 |    |    |    |    |    |    |    |    |
   ---- ---- ---- ---- ---- ---- ---- ----
3 |    | P  |    |    |    |    | P  | P  |
   ---- ---- ---- ---- ---- ---- ---- ----
2 | P  |    | P  | P  | P  | P  |    |    |
   ---- ---- ---- ---- ---- ---- ---- ----
1 | R  | N  | B  | Q  | K  | B  | N  | R  |
   ---- ---- ---- ---- ---- ---- ---- ----
    a    b    c    d    e    f    g    h
[DEBUG] [Parser] Wrote to ouput file championship/lizzie-iii-logic-and-proofs/move.csv move : e7e5
[32;1m[Game] [0mPlayer's error code: 0
[32;1m[Game] [0mChecking move validity...
[32;1m[Board] [0mInitializing board...
[32;1m[Board] [0mLoading history file `championship/lizzie-iii-logic-and-proofs/history.csv`...
[32;1m[Board] [0mLoaded 5 move(s).
[32;1m[Board] [0mLoading move file `championship/lizzie-iii-logic-and-proofs/move.csv`...
[32;1m[Board] [0mBlack player is playing e7 to e5.
[32;1m[Board] [0m
[32;1m[Board] [0m    a b c d e f g h 
[32;1m[Board] [0m  -------------------
[32;1m[Board] [0m8 ||[30;1mr[0m|[30;1mk[0m|[30;1mb[0m|[30;1mQ[0m|[30;1mK[0m|[30;1mb[0m|[30;1mk[0m|[30;1mr[0m|| 8
[32;1m[Board] [0m  -------------------
[32;1m[Board] [0m7 || |[7;1m [0m|[30;1mp[0m|[30;1mp[0m| |[30;1mp[0m|[30;1mp[0m|[30;1mp[0m|| 7
[32;1m[Board] [0m  -------------------
[32;1m[Board] [0m6 ||[7;1m [0m|[30;1mp[0m|[7;1m [0m| |[7;1m [0m| |[7;1m [0m| || 6
[32;1m[Board] [0m  -------------------
[32;1m[Board] [0m5 ||[30;1mp[0m|[7;1m [0m| |[7;1m [0m|[30;1mp[0m|[7;1m [0m| |[7;1m [0m|| 5
[32;1m[Board] [0m  -------------------
[32;1m[Board] [0m4 ||[7;1m [0m| |[7;1m [0m| |[7;1m [0m| |[7;1m [0m| || 4
[32;1m[Board] [0m  -------------------
[32;1m[Board] [0m3 || |[0;1mp[0m| |[7;1m [0m| |[7;1m [0m|[0;1mp[0m|[0;1mp[0m|| 3
[32;1m[Board] [0m  -------------------
[32;1m[Board] [0m2 ||[0;1mp[0m| |[0;1mp[0m|[0;1mp[0m|[0;1mp[0m|[0;1mp[0m|[7;1m [0m| || 2
[32;1m[Board] [0m  -------------------
[32;1m[Board] [0m1 ||[0;1mr[0m|[0;1mk[0m|[0;1mb[0m|[0;1mQ[0m|[0;1mK[0m|[0;1mb[0m|[0;1mk[0m|[0;1mr[0m|| 1
[32;1m[Board] [0m  -------------------
[32;1m[Board] [0m    a b c d e f g h
[32;1m[Board] [0m
[32;1m[Referee] [0mThis is the turn of the White player...
Input file: championship/lizzie-iii-logic-and-proofs/history.csv
Output file: championship/lizzie-iii-logic-and-proofs/move.csv
Turn of: white
Succesful move
h2h3
8 | R N B Q K B N R 
7 | P P P P P P P P 
6 | _ _ _ _ _ _ _ _ 
5 | _ _ _ _ _ _ _ _ 
4 | _ _ _ _ _ _ _ _ 
3 | _ _ _ _ _ _ _ P 
2 | P P P P P P P _ 
1 | R N B Q K B N R 
-------------------
  | A B C D E F G H 

Turn of: black
Succesful move
b7b6
8 | R N B Q K B N R 
7 | P _ P P P P P P 
6 | _ P _ _ _ _ _ _ 
5 | _ _ _ _ _ _ _ _ 
4 | _ _ _ _ _ _ _ _ 
3 | _ _ _ _ _ _ _ P 
2 | P P P P P P P _ 
1 | R N B Q K B N R 
-------------------
  | A B C D E F G H 

Turn of: white
Succesful move
b2b3
8 | R N B Q K B N R 
7 | P _ P P P P P P 
6 | _ P _ _ _ _ _ _ 
5 | _ _ _ _ _ _ _ _ 
4 | _ _ _ _ _ _ _ _ 
3 | _ P _ _ _ _ _ P 
2 | P _ P P P P P _ 
1 | R N B Q K B N R 
-------------------
  | A B C D E F G H 

Turn of: black
Succesful move
a7a5
8 | R N B Q K B N R 
7 | _ _ P P P P P P 
6 | _ P _ _ _ _ _ _ 
5 | P _ _ _ _ _ _ _ 
4 | _ _ _ _ _ _ _ _ 
3 | _ P _ _ _ _ _ P 
2 | P _ P P P P P _ 
1 | R N B Q K B N R 
-------------------
  | A B C D E F G H 

Turn of: white
Succesful move
g2g3
8 | R N B Q K B N R 
7 | _ _ P P P P P P 
6 | _ P _ _ _ _ _ _ 
5 | P _ _ _ _ _ _ _ 
4 | _ _ _ _ _ _ _ _ 
3 | _ P _ _ _ _ P P 
2 | P _ P P P P _ _ 
1 | R N B Q K B N R 
-------------------
  | A B C D E F G H 

Turn of: black
Succesful move
e7e5
8 | R N B Q K B N R 
7 | _ _ P P _ P P P 
6 | _ P _ _ _ _ _ _ 
5 | P _ _ _ P _ _ _ 
4 | _ _ _ _ _ _ _ _ 
3 | _ P _ _ _ _ P P 
2 | P _ P P P P _ _ 
1 | R N B Q K B N R 
-------------------
  | A B C D E F G H 

We are playing as White
Move history:
h2h3
b7b6
b2b3
a7a5
g2g3
e7e5
8 | R N B Q K B N R 
7 | _ _ P P _ P P P 
6 | _ P _ _ _ _ _ _ 
5 | P _ _ _ P _ _ _ 
4 | _ _ _ _ _ _ _ _ 
3 | _ P _ _ _ _ P P 
2 | P _ P P P P _ _ 
1 | R N B Q K B N R 
-------------------
  | A B C D E F G H 

It is white's turn to play.
AI's move: c1a3
Move written: c1a3
[32;1m[Game] [0mPlayer's error code: 0
[32;1m[Game] [0mChecking move validity...
[32;1m[Board] [0mInitializing board...
[32;1m[Board] [0mLoading history file `championship/lizzie-iii-logic-and-proofs/history.csv`...
[32;1m[Board] [0mLoaded 6 move(s).
[32;1m[Board] [0mLoading move file `championship/lizzie-iii-logic-and-proofs/move.csv`...
[32;1m[Board] [0mWhite player is playing c1 to a3.
[32;1m[Board] [0m
[32;1m[Board] [0m    a b c d e f g h 
[32;1m[Board] [0m  -------------------
[32;1m[Board] [0m8 ||[30;1mr[0m|[30;1mk[0m|[30;1mb[0m|[30;1mQ[0m|[30;1mK[0m|[30;1mb[0m|[30;1mk[0m|[30;1mr[0m|| 8
[32;1m[Board] [0m  -------------------
[32;1m[Board] [0m7 || |[7;1m [0m|[30;1mp[0m|[30;1mp[0m| |[30;1mp[0m|[30;1mp[0m|[30;1mp[0m|| 7
[32;1m[Board] [0m  -------------------
[32;1m[Board] [0m6 ||[7;1m [0m|[30;1mp[0m|[7;1m [0m| |[7;1m [0m| |[7;1m [0m| || 6
[32;1m[Board] [0m  -------------------
[32;1m[Board] [0m5 ||[30;1mp[0m|[7;1m [0m| |[7;1m [0m|[30;1mp[0m|[7;1m [0m| |[7;1m [0m|| 5
[32;1m[Board] [0m  -------------------
[32;1m[Board] [0m4 ||[7;1m [0m| |[7;1m [0m| |[7;1m [0m| |[7;1m [0m| || 4
[32;1m[Board] [0m  -------------------
[32;1m[Board] [0m3 ||[0;1mb[0m|[0;1mp[0m| |[7;1m [0m| |[7;1m [0m|[0;1mp[0m|[0;1mp[0m|| 3
[32;1m[Board] [0m  -------------------
[32;1m[Board] [0m2 ||[0;1mp[0m| |[0;1mp[0m|[0;1mp[0m|[0;1mp[0m|[0;1mp[0m|[7;1m [0m| || 2
[32;1m[Board] [0m  -------------------
[32;1m[Board] [0m1 ||[0;1mr[0m|[0;1mk[0m| |[0;1mQ[0m|[0;1mK[0m|[0;1mb[0m|[0;1mk[0m|[0;1mr[0m|| 1
[32;1m[Board] [0m  -------------------
[32;1m[Board] [0m    a b c d e f g h
[32;1m[Board] [0m
[32;1m[Referee] [0mThis is the turn of the Black player...
[DEBUG] Input history filename: championship/lizzie-iii-logic-and-proofs/history.csv
[DEBUG] Output move file: championship/lizzie-iii-logic-and-proofs/move.csv
starting search...
searched and found best move in search: 2123402
Total nodes searched: 39809
how i see the board before writing next move: Turn: Black
Enpassant: xx	Castling: WK WQ BK BQ 
   ---- ---- ---- ---- ---- ---- ---- ----
8 | r  | n  | b  | q  | k  | b  | n  | r  |
   ---- ---- ---- ---- ---- ---- ---- ----
7 |    |    | p  | p  |    | p  | p  | p  |
   ---- ---- ---- ---- ---- ---- ---- ----
6 |    | p  |    |    |    |    |    |    |
   ---- ---- ---- ---- ---- ---- ---- ----
5 | p  |    |    |    | p  |    |    |    |
   ---- ---- ---- ---- ---- ---- ---- ----
4 |    |    |    |    |    |    |    |    |
   ---- ---- ---- ---- ---- ---- ---- ----
3 | B  | P  |    |    |    |    | P  | P  |
   ---- ---- ---- ---- ---- ---- ---- ----
2 | P  |    | P  | P  | P  | P  |    |    |
   ---- ---- ---- ---- ---- ---- ---- ----
1 | R  | N  |    | Q  | K  | B  | N  | R  |
   ---- ---- ---- ---- ---- ---- ---- ----
    a    b    c    d    e    f    g    h
[DEBUG] [Parser] Wrote to ouput file championship/lizzie-iii-logic-and-proofs/move.csv move : c7c5
[32;1m[Game] [0mPlayer's error code: 0
[32;1m[Game] [0mChecking move validity...
[32;1m[Board] [0mInitializing board...
[32;1m[Board] [0mLoading history file `championship/lizzie-iii-logic-and-proofs/history.csv`...
[32;1m[Board] [0mLoaded 7 move(s).
[32;1m[Board] [0mLoading move file `championship/lizzie-iii-logic-and-proofs/move.csv`...
[32;1m[Board] [0mBlack player is playing c7 to c5.
[32;1m[Board] [0m
[32;1m[Board] [0m    a b c d e f g h 
[32;1m[Board] [0m  -------------------
[32;1m[Board] [0m8 ||[30;1mr[0m|[30;1mk[0m|[30;1mb[0m|[30;1mQ[0m|[30;1mK[0m|[30;1mb[0m|[30;1mk[0m|[30;1mr[0m|| 8
[32;1m[Board] [0m  -------------------
[32;1m[Board] [0m7 || |[7;1m [0m| |[30;1mp[0m| |[30;1mp[0m|[30;1mp[0m|[30;1mp[0m|| 7
[32;1m[Board] [0m  -------------------
[32;1m[Board] [0m6 ||[7;1m [0m|[30;1mp[0m|[7;1m [0m| |[7;1m [0m| |[7;1m [0m| || 6
[32;1m[Board] [0m  -------------------
[32;1m[Board] [0m5 ||[30;1mp[0m|[7;1m [0m|[30;1mp[0m|[7;1m [0m|[30;1mp[0m|[7;1m [0m| |[7;1m [0m|| 5
[32;1m[Board] [0m  -------------------
[32;1m[Board] [0m4 ||[7;1m [0m| |[7;1m [0m| |[7;1m [0m| |[7;1m [0m| || 4
[32;1m[Board] [0m  -------------------
[32;1m[Board] [0m3 ||[0;1mb[0m|[0;1mp[0m| |[7;1m [0m| |[7;1m [0m|[0;1mp[0m|[0;1mp[0m|| 3
[32;1m[Board] [0m  -------------------
[32;1m[Board] [0m2 ||[0;1mp[0m| |[0;1mp[0m|[0;1mp[0m|[0;1mp[0m|[0;1mp[0m|[7;1m [0m| || 2
[32;1m[Board] [0m  -------------------
[32;1m[Board] [0m1 ||[0;1mr[0m|[0;1mk[0m| |[0;1mQ[0m|[0;1mK[0m|[0;1mb[0m|[0;1mk[0m|[0;1mr[0m|| 1
[32;1m[Board] [0m  -------------------
[32;1m[Board] [0m    a b c d e f g h
[32;1m[Board] [0m
[32;1m[Referee] [0mThis is the turn of the White player...
Input file: championship/lizzie-iii-logic-and-proofs/history.csv
Output file: championship/lizzie-iii-logic-and-proofs/move.csv
Turn of: white
Succesful move
h2h3
8 | R N B Q K B N R 
7 | P P P P P P P P 
6 | _ _ _ _ _ _ _ _ 
5 | _ _ _ _ _ _ _ _ 
4 | _ _ _ _ _ _ _ _ 
3 | _ _ _ _ _ _ _ P 
2 | P P P P P P P _ 
1 | R N B Q K B N R 
-------------------
  | A B C D E F G H 

Turn of: black
Succesful move
b7b6
8 | R N B Q K B N R 
7 | P _ P P P P P P 
6 | _ P _ _ _ _ _ _ 
5 | _ _ _ _ _ _ _ _ 
4 | _ _ _ _ _ _ _ _ 
3 | _ _ _ _ _ _ _ P 
2 | P P P P P P P _ 
1 | R N B Q K B N R 
-------------------
  | A B C D E F G H 

Turn of: white
Succesful move
b2b3
8 | R N B Q K B N R 
7 | P _ P P P P P P 
6 | _ P _ _ _ _ _ _ 
5 | _ _ _ _ _ _ _ _ 
4 | _ _ _ _ _ _ _ _ 
3 | _ P _ _ _ _ _ P 
2 | P _ P P P P P _ 
1 | R N B Q K B N R 
-------------------
  | A B C D E F G H 

Turn of: black
Succesful move
a7a5
8 | R N B Q K B N R 
7 | _ _ P P P P P P 
6 | _ P _ _ _ _ _ _ 
5 | P _ _ _ _ _ _ _ 
4 | _ _ _ _ _ _ _ _ 
3 | _ P _ _ _ _ _ P 
2 | P _ P P P P P _ 
1 | R N B Q K B N R 
-------------------
  | A B C D E F G H 

Turn of: white
Succesful move
g2g3
8 | R N B Q K B N R 
7 | _ _ P P P P P P 
6 | _ P _ _ _ _ _ _ 
5 | P _ _ _ _ _ _ _ 
4 | _ _ _ _ _ _ _ _ 
3 | _ P _ _ _ _ P P 
2 | P _ P P P P _ _ 
1 | R N B Q K B N R 
-------------------
  | A B C D E F G H 

Turn of: black
Succesful move
e7e5
8 | R N B Q K B N R 
7 | _ _ P P _ P P P 
6 | _ P _ _ _ _ _ _ 
5 | P _ _ _ P _ _ _ 
4 | _ _ _ _ _ _ _ _ 
3 | _ P _ _ _ _ P P 
2 | P _ P P P P _ _ 
1 | R N B Q K B N R 
-------------------
  | A B C D E F G H 

Turn of: white
Succesful move
c1a3
8 | R N B Q K B N R 
7 | _ _ P P _ P P P 
6 | _ P _ _ _ _ _ _ 
5 | P _ _ _ P _ _ _ 
4 | _ _ _ _ _ _ _ _ 
3 | B P _ _ _ _ P P 
2 | P _ P P P P _ _ 
1 | R N _ Q K B N R 
-------------------
  | A B C D E F G H 

Turn of: black
Succesful move
c7c5
8 | R N B Q K B N R 
7 | _ _ _ P _ P P P 
6 | _ P _ _ _ _ _ _ 
5 | P _ P _ P _ _ _ 
4 | _ _ _ _ _ _ _ _ 
3 | B P _ _ _ _ P P 
2 | P _ P P P P _ _ 
1 | R N _ Q K B N R 
-------------------
  | A B C D E F G H 

We are playing as White
Move history:
h2h3
b7b6
b2b3
a7a5
g2g3
e7e5
c1a3
c7c5
8 | R N B Q K B N R 
7 | _ _ _ P _ P P P 
6 | _ P _ _ _ _ _ _ 
5 | P _ P _ P _ _ _ 
4 | _ _ _ _ _ _ _ _ 
3 | B P _ _ _ _ P P 
2 | P _ P P P P _ _ 
1 | R N _ Q K B N R 
-------------------
  | A B C D E F G H 

It is white's turn to play.
AI's move: b3b4
Move written: b3b4
[32;1m[Game] [0mPlayer's error code: 0
[32;1m[Game] [0mChecking move validity...
[32;1m[Board] [0mInitializing board...
[32;1m[Board] [0mLoading history file `championship/lizzie-iii-logic-and-proofs/history.csv`...
[32;1m[Board] [0mLoaded 8 move(s).
[32;1m[Board] [0mLoading move file `championship/lizzie-iii-logic-and-proofs/move.csv`...
[32;1m[Board] [0mWhite player is playing b3 to b4.
[32;1m[Board] [0m
[32;1m[Board] [0m    a b c d e f g h 
[32;1m[Board] [0m  -------------------
[32;1m[Board] [0m8 ||[30;1mr[0m|[30;1mk[0m|[30;1mb[0m|[30;1mQ[0m|[30;1mK[0m|[30;1mb[0m|[30;1mk[0m|[30;1mr[0m|| 8
[32;1m[Board] [0m  -------------------
[32;1m[Board] [0m7 || |[7;1m [0m| |[30;1mp[0m| |[30;1mp[0m|[30;1mp[0m|[30;1mp[0m|| 7
[32;1m[Board] [0m  -------------------
[32;1m[Board] [0m6 ||[7;1m [0m|[30;1mp[0m|[7;1m [0m| |[7;1m [0m| |[7;1m [0m| || 6
[32;1m[Board] [0m  -------------------
[32;1m[Board] [0m5 ||[30;1mp[0m|[7;1m [0m|[30;1mp[0m|[7;1m [0m|[30;1mp[0m|[7;1m [0m| |[7;1m [0m|| 5
[32;1m[Board] [0m  -------------------
[32;1m[Board] [0m4 ||[7;1m [0m|[0;1mp[0m|[7;1m [0m| |[7;1m [0m| |[7;1m [0m| || 4
[32;1m[Board] [0m  -------------------
[32;1m[Board] [0m3 ||[0;1mb[0m|[7;1m [0m| |[7;1m [0m| |[7;1m [0m|[0;1mp[0m|[0;1mp[0m|| 3
[32;1m[Board] [0m  -------------------
[32;1m[Board] [0m2 ||[0;1mp[0m| |[0;1mp[0m|[0;1mp[0m|[0;1mp[0m|[0;1mp[0m|[7;1m [0m| || 2
[32;1m[Board] [0m  -------------------
[32;1m[Board] [0m1 ||[0;1mr[0m|[0;1mk[0m| |[0;1mQ[0m|[0;1mK[0m|[0;1mb[0m|[0;1mk[0m|[0;1mr[0m|| 1
[32;1m[Board] [0m  -------------------
[32;1m[Board] [0m    a b c d e f g h
[32;1m[Board] [0m
[32;1m[Referee] [0mThis is the turn of the Black player...
[DEBUG] Input history filename: championship/lizzie-iii-logic-and-proofs/history.csv
[DEBUG] Output move file: championship/lizzie-iii-logic-and-proofs/move.csv
starting search...
searched and found best move in search: 1075288
Total nodes searched: 13186
how i see the board before writing next move: Turn: Black
Enpassant: xx	Castling: WK WQ BK BQ 
   ---- ---- ---- ---- ---- ---- ---- ----
8 | r  | n  | b  | q  | k  | b  | n  | r  |
   ---- ---- ---- ---- ---- ---- ---- ----
7 |    |    |    | p  |    | p  | p  | p  |
   ---- ---- ---- ---- ---- ---- ---- ----
6 |    | p  |    |    |    |    |    |    |
   ---- ---- ---- ---- ---- ---- ---- ----
5 | p  |    | p  |    | p  |    |    |    |
   ---- ---- ---- ---- ---- ---- ---- ----
4 |    | P  |    |    |    |    |    |    |
   ---- ---- ---- ---- ---- ---- ---- ----
3 | B  |    |    |    |    |    | P  | P  |
   ---- ---- ---- ---- ---- ---- ---- ----
2 | P  |    | P  | P  | P  | P  |    |    |
   ---- ---- ---- ---- ---- ---- ---- ----
1 | R  | N  |    | Q  | K  | B  | N  | R  |
   ---- ---- ---- ---- ---- ---- ---- ----
    a    b    c    d    e    f    g    h
[DEBUG] [Parser] Wrote to ouput file championship/lizzie-iii-logic-and-proofs/move.csv move : a5b4
[32;1m[Game] [0mPlayer's error code: 0
[32;1m[Game] [0mChecking move validity...
[32;1m[Board] [0mInitializing board...
[32;1m[Board] [0mLoading history file `championship/lizzie-iii-logic-and-proofs/history.csv`...
[32;1m[Board] [0mLoaded 9 move(s).
[32;1m[Board] [0mLoading move file `championship/lizzie-iii-logic-and-proofs/move.csv`...
[32;1m[Board] [0mBlack player is playing a5 to b4.
[32;1m[Board] [0m[5;1mBlack Pawn is taking White Pawn.[0m
[32;1m[Board] [0m
[32;1m[Board] [0m    a b c d e f g h 
[32;1m[Board] [0m  -------------------
[32;1m[Board] [0m8 ||[30;1mr[0m|[30;1mk[0m|[30;1mb[0m|[30;1mQ[0m|[30;1mK[0m|[30;1mb[0m|[30;1mk[0m|[30;1mr[0m|| 8
[32;1m[Board] [0m  -------------------
[32;1m[Board] [0m7 || |[7;1m [0m| |[30;1mp[0m| |[30;1mp[0m|[30;1mp[0m|[30;1mp[0m|| 7
[32;1m[Board] [0m  -------------------
[32;1m[Board] [0m6 ||[7;1m [0m|[30;1mp[0m|[7;1m [0m| |[7;1m [0m| |[7;1m [0m| || 6
[32;1m[Board] [0m  -------------------
[32;1m[Board] [0m5 || |[7;1m [0m|[30;1mp[0m|[7;1m [0m|[30;1mp[0m|[7;1m [0m| |[7;1m [0m|| 5
[32;1m[Board] [0m  -------------------
[32;1m[Board] [0m4 ||[7;1m [0m|[30;1mp[0m|[7;1m [0m| |[7;1m [0m| |[7;1m [0m| || 4
[32;1m[Board] [0m  -------------------
[32;1m[Board] [0m3 ||[0;1mb[0m|[7;1m [0m| |[7;1m [0m| |[7;1m [0m|[0;1mp[0m|[0;1mp[0m|| 3
[32;1m[Board] [0m  -------------------
[32;1m[Board] [0m2 ||[0;1mp[0m| |[0;1mp[0m|[0;1mp[0m|[0;1mp[0m|[0;1mp[0m|[7;1m [0m| || 2
[32;1m[Board] [0m  -------------------
[32;1m[Board] [0m1 ||[0;1mr[0m|[0;1mk[0m| |[0;1mQ[0m|[0;1mK[0m|[0;1mb[0m|[0;1mk[0m|[0;1mr[0m|| 1
[32;1m[Board] [0m  -------------------
[32;1m[Board] [0m    a b c d e f g h
[32;1m[Board] [0m
[32;1m[Referee] [0mThis is the turn of the White player...
Input file: championship/lizzie-iii-logic-and-proofs/history.csv
Output file: championship/lizzie-iii-logic-and-proofs/move.csv
Turn of: white
Succesful move
h2h3
8 | R N B Q K B N R 
7 | P P P P P P P P 
6 | _ _ _ _ _ _ _ _ 
5 | _ _ _ _ _ _ _ _ 
4 | _ _ _ _ _ _ _ _ 
3 | _ _ _ _ _ _ _ P 
2 | P P P P P P P _ 
1 | R N B Q K B N R 
-------------------
  | A B C D E F G H 

Turn of: black
Succesful move
b7b6
8 | R N B Q K B N R 
7 | P _ P P P P P P 
6 | _ P _ _ _ _ _ _ 
5 | _ _ _ _ _ _ _ _ 
4 | _ _ _ _ _ _ _ _ 
3 | _ _ _ _ _ _ _ P 
2 | P P P P P P P _ 
1 | R N B Q K B N R 
-------------------
  | A B C D E F G H 

Turn of: white
Succesful move
b2b3
8 | R N B Q K B N R 
7 | P _ P P P P P P 
6 | _ P _ _ _ _ _ _ 
5 | _ _ _ _ _ _ _ _ 
4 | _ _ _ _ _ _ _ _ 
3 | _ P _ _ _ _ _ P 
2 | P _ P P P P P _ 
1 | R N B Q K B N R 
-------------------
  | A B C D E F G H 

Turn of: black
Succesful move
a7a5
8 | R N B Q K B N R 
7 | _ _ P P P P P P 
6 | _ P _ _ _ _ _ _ 
5 | P _ _ _ _ _ _ _ 
4 | _ _ _ _ _ _ _ _ 
3 | _ P _ _ _ _ _ P 
2 | P _ P P P P P _ 
1 | R N B Q K B N R 
-------------------
  | A B C D E F G H 

Turn of: white
Succesful move
g2g3
8 | R N B Q K B N R 
7 | _ _ P P P P P P 
6 | _ P _ _ _ _ _ _ 
5 | P _ _ _ _ _ _ _ 
4 | _ _ _ _ _ _ _ _ 
3 | _ P _ _ _ _ P P 
2 | P _ P P P P _ _ 
1 | R N B Q K B N R 
-------------------
  | A B C D E F G H 

Turn of: black
Succesful move
e7e5
8 | R N B Q K B N R 
7 | _ _ P P _ P P P 
6 | _ P _ _ _ _ _ _ 
5 | P _ _ _ P _ _ _ 
4 | _ _ _ _ _ _ _ _ 
3 | _ P _ _ _ _ P P 
2 | P _ P P P P _ _ 
1 | R N B Q K B N R 
-------------------
  | A B C D E F G H 

Turn of: white
Succesful move
c1a3
8 | R N B Q K B N R 
7 | _ _ P P _ P P P 
6 | _ P _ _ _ _ _ _ 
5 | P _ _ _ P _ _ _ 
4 | _ _ _ _ _ _ _ _ 
3 | B P _ _ _ _ P P 
2 | P _ P P P P _ _ 
1 | R N _ Q K B N R 
-------------------
  | A B C D E F G H 

Turn of: black
Succesful move
c7c5
8 | R N B Q K B N R 
7 | _ _ _ P _ P P P 
6 | _ P _ _ _ _ _ _ 
5 | P _ P _ P _ _ _ 
4 | _ _ _ _ _ _ _ _ 
3 | B P _ _ _ _ P P 
2 | P _ P P P P _ _ 
1 | R N _ Q K B N R 
-------------------
  | A B C D E F G H 

Turn of: white
Succesful move
b3b4
8 | R N B Q K B N R 
7 | _ _ _ P _ P P P 
6 | _ P _ _ _ _ _ _ 
5 | P _ P _ P _ _ _ 
4 | _ P _ _ _ _ _ _ 
3 | B _ _ _ _ _ P P 
2 | P _ P P P P _ _ 
1 | R N _ Q K B N R 
-------------------
  | A B C D E F G H 

Turn of: black
Succesful move
a5b4
8 | R N B Q K B N R 
7 | _ _ _ P _ P P P 
6 | _ P _ _ _ _ _ _ 
5 | _ _ P _ P _ _ _ 
4 | _ P _ _ _ _ _ _ 
3 | B _ _ _ _ _ P P 
2 | P _ P P P P _ _ 
1 | R N _ Q K B N R 
-------------------
  | A B C D E F G H 

We are playing as White
Move history:
h2h3
b7b6
b2b3
a7a5
g2g3
e7e5
c1a3
c7c5
b3b4
a5b4
8 | R N B Q K B N R 
7 | _ _ _ P _ P P P 
6 | _ P _ _ _ _ _ _ 
5 | _ _ P _ P _ _ _ 
4 | _ P _ _ _ _ _ _ 
3 | B _ _ _ _ _ P P 
2 | P _ P P P P _ _ 
1 | R N _ Q K B N R 
-------------------
  | A B C D E F G H 

It is white's turn to play.
AI's move: d2d3
Move written: d2d3
[32;1m[Game] [0mPlayer's error code: 0
[32;1m[Game] [0mChecking move validity...
[32;1m[Board] [0mInitializing board...
[32;1m[Board] [0mLoading history file `championship/lizzie-iii-logic-and-proofs/history.csv`...
[32;1m[Board] [0mLoaded 10 move(s).
[32;1m[Board] [0mLoading move file `championship/lizzie-iii-logic-and-proofs/move.csv`...
[32;1m[Board] [0mWhite player is playing d2 to d3.
[32;1m[Board] [0m
[32;1m[Board] [0m    a b c d e f g h 
[32;1m[Board] [0m  -------------------
[32;1m[Board] [0m8 ||[30;1mr[0m|[30;1mk[0m|[30;1mb[0m|[30;1mQ[0m|[30;1mK[0m|[30;1mb[0m|[30;1mk[0m|[30;1mr[0m|| 8
[32;1m[Board] [0m  -------------------
[32;1m[Board] [0m7 || |[7;1m [0m| |[30;1mp[0m| |[30;1mp[0m|[30;1mp[0m|[30;1mp[0m|| 7
[32;1m[Board] [0m  -------------------
[32;1m[Board] [0m6 ||[7;1m [0m|[30;1mp[0m|[7;1m [0m| |[7;1m [0m| |[7;1m [0m| || 6
[32;1m[Board] [0m  -------------------
[32;1m[Board] [0m5 || |[7;1m [0m|[30;1mp[0m|[7;1m [0m|[30;1mp[0m|[7;1m [0m| |[7;1m [0m|| 5
[32;1m[Board] [0m  -------------------
[32;1m[Board] [0m4 ||[7;1m [0m|[30;1mp[0m|[7;1m [0m| |[7;1m [0m| |[7;1m [0m| || 4
[32;1m[Board] [0m  -------------------
[32;1m[Board] [0m3 ||[0;1mb[0m|[7;1m [0m| |[0;1mp[0m| |[7;1m [0m|[0;1mp[0m|[0;1mp[0m|| 3
[32;1m[Board] [0m  -------------------
[32;1m[Board] [0m2 ||[0;1mp[0m| |[0;1mp[0m| |[0;1mp[0m|[0;1mp[0m|[7;1m [0m| || 2
[32;1m[Board] [0m  -------------------
[32;1m[Board] [0m1 ||[0;1mr[0m|[0;1mk[0m| |[0;1mQ[0m|[0;1mK[0m|[0;1mb[0m|[0;1mk[0m|[0;1mr[0m|| 1
[32;1m[Board] [0m  -------------------
[32;1m[Board] [0m    a b c d e f g h
[32;1m[Board] [0m
[32;1m[Referee] [0mThis is the turn of the Black player...
[DEBUG] Input history filename: championship/lizzie-iii-logic-and-proofs/history.csv
[DEBUG] Output move file: championship/lizzie-iii-logic-and-proofs/move.csv
starting search...
searched and found best move in search: 1075745
Total nodes searched: 36548
how i see the board before writing next move: Turn: Black
Enpassant: xx	Castling: WK WQ BK BQ 
   ---- ---- ---- ---- ---- ---- ---- ----
8 | r  | n  | b  | q  | k  | b  | n  | r  |
   ---- ---- ---- ---- ---- ---- ---- ----
7 |    |    |    | p  |    | p  | p  | p  |
   ---- ---- ---- ---- ---- ---- ---- ----
6 |    | p  |    |    |    |    |    |    |
   ---- ---- ---- ---- ---- ---- ---- ----
5 |    |    | p  |    | p  |    |    |    |
   ---- ---- ---- ---- ---- ---- ---- ----
4 |    | p  |    |    |    |    |    |    |
   ---- ---- ---- ---- ---- ---- ---- ----
3 | B  |    |    | P  |    |    | P  | P  |
   ---- ---- ---- ---- ---- ---- ---- ----
2 | P  |    | P  |    | P  | P  |    |    |
   ---- ---- ---- ---- ---- ---- ---- ----
1 | R  | N  |    | Q  | K  | B  | N  | R  |
   ---- ---- ---- ---- ---- ---- ---- ----
    a    b    c    d    e    f    g    h
[DEBUG] [Parser] Wrote to ouput file championship/lizzie-iii-logic-and-proofs/move.csv move : b4a3
[32;1m[Game] [0mPlayer's error code: 0
[32;1m[Game] [0mChecking move validity...
[32;1m[Board] [0mInitializing board...
[32;1m[Board] [0mLoading history file `championship/lizzie-iii-logic-and-proofs/history.csv`...
[32;1m[Board] [0mLoaded 11 move(s).
[32;1m[Board] [0mLoading move file `championship/lizzie-iii-logic-and-proofs/move.csv`...
[32;1m[Board] [0mBlack player is playing b4 to a3.
[32;1m[Board] [0m[5;1mBlack Pawn is taking White Bishop.[0m
[32;1m[Board] [0m
[32;1m[Board] [0m    a b c d e f g h 
[32;1m[Board] [0m  -------------------
[32;1m[Board] [0m8 ||[30;1mr[0m|[30;1mk[0m|[30;1mb[0m|[30;1mQ[0m|[30;1mK[0m|[30;1mb[0m|[30;1mk[0m|[30;1mr[0m|| 8
[32;1m[Board] [0m  -------------------
[32;1m[Board] [0m7 || |[7;1m [0m| |[30;1mp[0m| |[30;1mp[0m|[30;1mp[0m|[30;1mp[0m|| 7
[32;1m[Board] [0m  -------------------
[32;1m[Board] [0m6 ||[7;1m [0m|[30;1mp[0m|[7;1m [0m| |[7;1m [0m| |[7;1m [0m| || 6
[32;1m[Board] [0m  -------------------
[32;1m[Board] [0m5 || |[7;1m [0m|[30;1mp[0m|[7;1m [0m|[30;1mp[0m|[7;1m [0m| |[7;1m [0m|| 5
[32;1m[Board] [0m  -------------------
[32;1m[Board] [0m4 ||[7;1m [0m| |[7;1m [0m| |[7;1m [0m| |[7;1m [0m| || 4
[32;1m[Board] [0m  -------------------
[32;1m[Board] [0m3 ||[30;1mp[0m|[7;1m [0m| |[0;1mp[0m| |[7;1m [0m|[0;1mp[0m|[0;1mp[0m|| 3
[32;1m[Board] [0m  -------------------
[32;1m[Board] [0m2 ||[0;1mp[0m| |[0;1mp[0m| |[0;1mp[0m|[0;1mp[0m|[7;1m [0m| || 2
[32;1m[Board] [0m  -------------------
[32;1m[Board] [0m1 ||[0;1mr[0m|[0;1mk[0m| |[0;1mQ[0m|[0;1mK[0m|[0;1mb[0m|[0;1mk[0m|[0;1mr[0m|| 1
[32;1m[Board] [0m  -------------------
[32;1m[Board] [0m    a b c d e f g h
[32;1m[Board] [0m
[32;1m[Referee] [0mThis is the turn of the White player...
Input file: championship/lizzie-iii-logic-and-proofs/history.csv
Output file: championship/lizzie-iii-logic-and-proofs/move.csv
Turn of: white
Succesful move
h2h3
8 | R N B Q K B N R 
7 | P P P P P P P P 
6 | _ _ _ _ _ _ _ _ 
5 | _ _ _ _ _ _ _ _ 
4 | _ _ _ _ _ _ _ _ 
3 | _ _ _ _ _ _ _ P 
2 | P P P P P P P _ 
1 | R N B Q K B N R 
-------------------
  | A B C D E F G H 

Turn of: black
Succesful move
b7b6
8 | R N B Q K B N R 
7 | P _ P P P P P P 
6 | _ P _ _ _ _ _ _ 
5 | _ _ _ _ _ _ _ _ 
4 | _ _ _ _ _ _ _ _ 
3 | _ _ _ _ _ _ _ P 
2 | P P P P P P P _ 
1 | R N B Q K B N R 
-------------------
  | A B C D E F G H 

Turn of: white
Succesful move
b2b3
8 | R N B Q K B N R 
7 | P _ P P P P P P 
6 | _ P _ _ _ _ _ _ 
5 | _ _ _ _ _ _ _ _ 
4 | _ _ _ _ _ _ _ _ 
3 | _ P _ _ _ _ _ P 
2 | P _ P P P P P _ 
1 | R N B Q K B N R 
-------------------
  | A B C D E F G H 

Turn of: black
Succesful move
a7a5
8 | R N B Q K B N R 
7 | _ _ P P P P P P 
6 | _ P _ _ _ _ _ _ 
5 | P _ _ _ _ _ _ _ 
4 | _ _ _ _ _ _ _ _ 
3 | _ P _ _ _ _ _ P 
2 | P _ P P P P P _ 
1 | R N B Q K B N R 
-------------------
  | A B C D E F G H 

Turn of: white
Succesful move
g2g3
8 | R N B Q K B N R 
7 | _ _ P P P P P P 
6 | _ P _ _ _ _ _ _ 
5 | P _ _ _ _ _ _ _ 
4 | _ _ _ _ _ _ _ _ 
3 | _ P _ _ _ _ P P 
2 | P _ P P P P _ _ 
1 | R N B Q K B N R 
-------------------
  | A B C D E F G H 

Turn of: black
Succesful move
e7e5
8 | R N B Q K B N R 
7 | _ _ P P _ P P P 
6 | _ P _ _ _ _ _ _ 
5 | P _ _ _ P _ _ _ 
4 | _ _ _ _ _ _ _ _ 
3 | _ P _ _ _ _ P P 
2 | P _ P P P P _ _ 
1 | R N B Q K B N R 
-------------------
  | A B C D E F G H 

Turn of: white
Succesful move
c1a3
8 | R N B Q K B N R 
7 | _ _ P P _ P P P 
6 | _ P _ _ _ _ _ _ 
5 | P _ _ _ P _ _ _ 
4 | _ _ _ _ _ _ _ _ 
3 | B P _ _ _ _ P P 
2 | P _ P P P P _ _ 
1 | R N _ Q K B N R 
-------------------
  | A B C D E F G H 

Turn of: black
Succesful move
c7c5
8 | R N B Q K B N R 
7 | _ _ _ P _ P P P 
6 | _ P _ _ _ _ _ _ 
5 | P _ P _ P _ _ _ 
4 | _ _ _ _ _ _ _ _ 
3 | B P _ _ _ _ P P 
2 | P _ P P P P _ _ 
1 | R N _ Q K B N R 
-------------------
  | A B C D E F G H 

Turn of: white
Succesful move
b3b4
8 | R N B Q K B N R 
7 | _ _ _ P _ P P P 
6 | _ P _ _ _ _ _ _ 
5 | P _ P _ P _ _ _ 
4 | _ P _ _ _ _ _ _ 
3 | B _ _ _ _ _ P P 
2 | P _ P P P P _ _ 
1 | R N _ Q K B N R 
-------------------
  | A B C D E F G H 

Turn of: black
Succesful move
a5b4
8 | R N B Q K B N R 
7 | _ _ _ P _ P P P 
6 | _ P _ _ _ _ _ _ 
5 | _ _ P _ P _ _ _ 
4 | _ P _ _ _ _ _ _ 
3 | B _ _ _ _ _ P P 
2 | P _ P P P P _ _ 
1 | R N _ Q K B N R 
-------------------
  | A B C D E F G H 

Turn of: white
Succesful move
d2d3
8 | R N B Q K B N R 
7 | _ _ _ P _ P P P 
6 | _ P _ _ _ _ _ _ 
5 | _ _ P _ P _ _ _ 
4 | _ P _ _ _ _ _ _ 
3 | B _ _ P _ _ P P 
2 | P _ P _ P P _ _ 
1 | R N _ Q K B N R 
-------------------
  | A B C D E F G H 

Turn of: black
Succesful move
b4a3
8 | R N B Q K B N R 
7 | _ _ _ P _ P P P 
6 | _ P _ _ _ _ _ _ 
5 | _ _ P _ P _ _ _ 
4 | _ _ _ _ _ _ _ _ 
3 | P _ _ P _ _ P P 
2 | P _ P _ P P _ _ 
1 | R N _ Q K B N R 
-------------------
  | A B C D E F G H 

We are playing as White
Move history:
h2h3
b7b6
b2b3
a7a5
g2g3
e7e5
c1a3
c7c5
b3b4
a5b4
d2d3
b4a3
8 | R N B Q K B N R 
7 | _ _ _ P _ P P P 
6 | _ P _ _ _ _ _ _ 
5 | _ _ P _ P _ _ _ 
4 | _ _ _ _ _ _ _ _ 
3 | P _ _ P _ _ P P 
2 | P _ P _ P P _ _ 
1 | R N _ Q K B N R 
-------------------
  | A B C D E F G H 

It is white's turn to play.
AI's move: d1c1
Move written: d1c1
[32;1m[Game] [0mPlayer's error code: 0
[32;1m[Game] [0mChecking move validity...
[32;1m[Board] [0mInitializing board...
[32;1m[Board] [0mLoading history file `championship/lizzie-iii-logic-and-proofs/history.csv`...
[32;1m[Board] [0mLoaded 12 move(s).
[32;1m[Board] [0mLoading move file `championship/lizzie-iii-logic-and-proofs/move.csv`...
[32;1m[Board] [0mWhite player is playing d1 to c1.
[32;1m[Board] [0m
[32;1m[Board] [0m    a b c d e f g h 
[32;1m[Board] [0m  -------------------
[32;1m[Board] [0m8 ||[30;1mr[0m|[30;1mk[0m|[30;1mb[0m|[30;1mQ[0m|[30;1mK[0m|[30;1mb[0m|[30;1mk[0m|[30;1mr[0m|| 8
[32;1m[Board] [0m  -------------------
[32;1m[Board] [0m7 || |[7;1m [0m| |[30;1mp[0m| |[30;1mp[0m|[30;1mp[0m|[30;1mp[0m|| 7
[32;1m[Board] [0m  -------------------
[32;1m[Board] [0m6 ||[7;1m [0m|[30;1mp[0m|[7;1m [0m| |[7;1m [0m| |[7;1m [0m| || 6
[32;1m[Board] [0m  -------------------
[32;1m[Board] [0m5 || |[7;1m [0m|[30;1mp[0m|[7;1m [0m|[30;1mp[0m|[7;1m [0m| |[7;1m [0m|| 5
[32;1m[Board] [0m  -------------------
[32;1m[Board] [0m4 ||[7;1m [0m| |[7;1m [0m| |[7;1m [0m| |[7;1m [0m| || 4
[32;1m[Board] [0m  -------------------
[32;1m[Board] [0m3 ||[30;1mp[0m|[7;1m [0m| |[0;1mp[0m| |[7;1m [0m|[0;1mp[0m|[0;1mp[0m|| 3
[32;1m[Board] [0m  -------------------
[32;1m[Board] [0m2 ||[0;1mp[0m| |[0;1mp[0m| |[0;1mp[0m|[0;1mp[0m|[7;1m [0m| || 2
[32;1m[Board] [0m  -------------------
[32;1m[Board] [0m1 ||[0;1mr[0m|[0;1mk[0m|[0;1mQ[0m|[7;1m [0m|[0;1mK[0m|[0;1mb[0m|[0;1mk[0m|[0;1mr[0m|| 1
[32;1m[Board] [0m  -------------------
[32;1m[Board] [0m    a b c d e f g h
[32;1m[Board] [0m
[32;1m[Referee] [0mThis is the turn of the Black player...
[DEBUG] Input history filename: championship/lizzie-iii-logic-and-proofs/history.csv
[DEBUG] Output move file: championship/lizzie-iii-logic-and-proofs/move.csv
starting search...
searched and found best move in search: 25803
Total nodes searched: 11802
how i see the board before writing next move: Turn: Black
Enpassant: xx	Castling: WK WQ BK BQ 
   ---- ---- ---- ---- ---- ---- ---- ----
8 | r  | n  | b  | q  | k  | b  | n  | r  |
   ---- ---- ---- ---- ---- ---- ---- ----
7 |    |    |    | p  |    | p  | p  | p  |
   ---- ---- ---- ---- ---- ---- ---- ----
6 |    | p  |    |    |    |    |    |    |
   ---- ---- ---- ---- ---- ---- ---- ----
5 |    |    | p  |    | p  |    |    |    |
   ---- ---- ---- ---- ---- ---- ---- ----
4 |    |    |    |    |    |    |    |    |
   ---- ---- ---- ---- ---- ---- ---- ----
3 | p  |    |    | P  |    |    | P  | P  |
   ---- ---- ---- ---- ---- ---- ---- ----
2 | P  |    | P  |    | P  | P  |    |    |
   ---- ---- ---- ---- ---- ---- ---- ----
1 | R  | N  | Q  |    | K  | B  | N  | R  |
   ---- ---- ---- ---- ---- ---- ---- ----
    a    b    c    d    e    f    g    h
[DEBUG] [Parser] Wrote to ouput file championship/lizzie-iii-logic-and-proofs/move.csv move : d7d6
[32;1m[Game] [0mPlayer's error code: 0
[32;1m[Game] [0mChecking move validity...
[32;1m[Board] [0mInitializing board...
[32;1m[Board] [0mLoading history file `championship/lizzie-iii-logic-and-proofs/history.csv`...
[32;1m[Board] [0mLoaded 13 move(s).
[32;1m[Board] [0mLoading move file `championship/lizzie-iii-logic-and-proofs/move.csv`...
[32;1m[Board] [0mBlack player is playing d7 to d6.
[32;1m[Board] [0m
[32;1m[Board] [0m    a b c d e f g h 
[32;1m[Board] [0m  -------------------
[32;1m[Board] [0m8 ||[30;1mr[0m|[30;1mk[0m|[30;1mb[0m|[30;1mQ[0m|[30;1mK[0m|[30;1mb[0m|[30;1mk[0m|[30;1mr[0m|| 8
[32;1m[Board] [0m  -------------------
[32;1m[Board] [0m7 || |[7;1m [0m| |[7;1m [0m| |[30;1mp[0m|[30;1mp[0m|[30;1mp[0m|| 7
[32;1m[Board] [0m  -------------------
[32;1m[Board] [0m6 ||[7;1m [0m|[30;1mp[0m|[7;1m [0m|[30;1mp[0m|[7;1m [0m| |[7;1m [0m| || 6
[32;1m[Board] [0m  -------------------
[32;1m[Board] [0m5 || |[7;1m [0m|[30;1mp[0m|[7;1m [0m|[30;1mp[0m|[7;1m [0m| |[7;1m [0m|| 5
[32;1m[Board] [0m  -------------------
[32;1m[Board] [0m4 ||[7;1m [0m| |[7;1m [0m| |[7;1m [0m| |[7;1m [0m| || 4
[32;1m[Board] [0m  -------------------
[32;1m[Board] [0m3 ||[30;1mp[0m|[7;1m [0m| |[0;1mp[0m| |[7;1m [0m|[0;1mp[0m|[0;1mp[0m|| 3
[32;1m[Board] [0m  -------------------
[32;1m[Board] [0m2 ||[0;1mp[0m| |[0;1mp[0m| |[0;1mp[0m|[0;1mp[0m|[7;1m [0m| || 2
[32;1m[Board] [0m  -------------------
[32;1m[Board] [0m1 ||[0;1mr[0m|[0;1mk[0m|[0;1mQ[0m|[7;1m [0m|[0;1mK[0m|[0;1mb[0m|[0;1mk[0m|[0;1mr[0m|| 1
[32;1m[Board] [0m  -------------------
[32;1m[Board] [0m    a b c d e f g h
[32;1m[Board] [0m
[32;1m[Referee] [0mThis is the turn of the White player...
Input file: championship/lizzie-iii-logic-and-proofs/history.csv
Output file: championship/lizzie-iii-logic-and-proofs/move.csv
Turn of: white
Succesful move
h2h3
8 | R N B Q K B N R 
7 | P P P P P P P P 
6 | _ _ _ _ _ _ _ _ 
5 | _ _ _ _ _ _ _ _ 
4 | _ _ _ _ _ _ _ _ 
3 | _ _ _ _ _ _ _ P 
2 | P P P P P P P _ 
1 | R N B Q K B N R 
-------------------
  | A B C D E F G H 

Turn of: black
Succesful move
b7b6
8 | R N B Q K B N R 
7 | P _ P P P P P P 
6 | _ P _ _ _ _ _ _ 
5 | _ _ _ _ _ _ _ _ 
4 | _ _ _ _ _ _ _ _ 
3 | _ _ _ _ _ _ _ P 
2 | P P P P P P P _ 
1 | R N B Q K B N R 
-------------------
  | A B C D E F G H 

Turn of: white
Succesful move
b2b3
8 | R N B Q K B N R 
7 | P _ P P P P P P 
6 | _ P _ _ _ _ _ _ 
5 | _ _ _ _ _ _ _ _ 
4 | _ _ _ _ _ _ _ _ 
3 | _ P _ _ _ _ _ P 
2 | P _ P P P P P _ 
1 | R N B Q K B N R 
-------------------
  | A B C D E F G H 

Turn of: black
Succesful move
a7a5
8 | R N B Q K B N R 
7 | _ _ P P P P P P 
6 | _ P _ _ _ _ _ _ 
5 | P _ _ _ _ _ _ _ 
4 | _ _ _ _ _ _ _ _ 
3 | _ P _ _ _ _ _ P 
2 | P _ P P P P P _ 
1 | R N B Q K B N R 
-------------------
  | A B C D E F G H 

Turn of: white
Succesful move
g2g3
8 | R N B Q K B N R 
7 | _ _ P P P P P P 
6 | _ P _ _ _ _ _ _ 
5 | P _ _ _ _ _ _ _ 
4 | _ _ _ _ _ _ _ _ 
3 | _ P _ _ _ _ P P 
2 | P _ P P P P _ _ 
1 | R N B Q K B N R 
-------------------
  | A B C D E F G H 

Turn of: black
Succesful move
e7e5
8 | R N B Q K B N R 
7 | _ _ P P _ P P P 
6 | _ P _ _ _ _ _ _ 
5 | P _ _ _ P _ _ _ 
4 | _ _ _ _ _ _ _ _ 
3 | _ P _ _ _ _ P P 
2 | P _ P P P P _ _ 
1 | R N B Q K B N R 
-------------------
  | A B C D E F G H 

Turn of: white
Succesful move
c1a3
8 | R N B Q K B N R 
7 | _ _ P P _ P P P 
6 | _ P _ _ _ _ _ _ 
5 | P _ _ _ P _ _ _ 
4 | _ _ _ _ _ _ _ _ 
3 | B P _ _ _ _ P P 
2 | P _ P P P P _ _ 
1 | R N _ Q K B N R 
-------------------
  | A B C D E F G H 

Turn of: black
Succesful move
c7c5
8 | R N B Q K B N R 
7 | _ _ _ P _ P P P 
6 | _ P _ _ _ _ _ _ 
5 | P _ P _ P _ _ _ 
4 | _ _ _ _ _ _ _ _ 
3 | B P _ _ _ _ P P 
2 | P _ P P P P _ _ 
1 | R N _ Q K B N R 
-------------------
  | A B C D E F G H 

Turn of: white
Succesful move
b3b4
8 | R N B Q K B N R 
7 | _ _ _ P _ P P P 
6 | _ P _ _ _ _ _ _ 
5 | P _ P _ P _ _ _ 
4 | _ P _ _ _ _ _ _ 
3 | B _ _ _ _ _ P P 
2 | P _ P P P P _ _ 
1 | R N _ Q K B N R 
-------------------
  | A B C D E F G H 

Turn of: black
Succesful move
a5b4
8 | R N B Q K B N R 
7 | _ _ _ P _ P P P 
6 | _ P _ _ _ _ _ _ 
5 | _ _ P _ P _ _ _ 
4 | _ P _ _ _ _ _ _ 
3 | B _ _ _ _ _ P P 
2 | P _ P P P P _ _ 
1 | R N _ Q K B N R 
-------------------
  | A B C D E F G H 

Turn of: white
Succesful move
d2d3
8 | R N B Q K B N R 
7 | _ _ _ P _ P P P 
6 | _ P _ _ _ _ _ _ 
5 | _ _ P _ P _ _ _ 
4 | _ P _ _ _ _ _ _ 
3 | B _ _ P _ _ P P 
2 | P _ P _ P P _ _ 
1 | R N _ Q K B N R 
-------------------
  | A B C D E F G H 

Turn of: black
Succesful move
b4a3
8 | R N B Q K B N R 
7 | _ _ _ P _ P P P 
6 | _ P _ _ _ _ _ _ 
5 | _ _ P _ P _ _ _ 
4 | _ _ _ _ _ _ _ _ 
3 | P _ _ P _ _ P P 
2 | P _ P _ P P _ _ 
1 | R N _ Q K B N R 
-------------------
  | A B C D E F G H 

Turn of: white
Succesful move
d1c1
8 | R N B Q K B N R 
7 | _ _ _ P _ P P P 
6 | _ P _ _ _ _ _ _ 
5 | _ _ P _ P _ _ _ 
4 | _ _ _ _ _ _ _ _ 
3 | P _ _ P _ _ P P 
2 | P _ P _ P P _ _ 
1 | R N Q _ K B N R 
-------------------
  | A B C D E F G H 

Turn of: black
Succesful move
d7d6
8 | R N B Q K B N R 
7 | _ _ _ _ _ P P P 
6 | _ P _ P _ _ _ _ 
5 | _ _ P _ P _ _ _ 
4 | _ _ _ _ _ _ _ _ 
3 | P _ _ P _ _ P P 
2 | P _ P _ P P _ _ 
1 | R N Q _ K B N R 
-------------------
  | A B C D E F G H 

We are playing as White
Move history:
h2h3
b7b6
b2b3
a7a5
g2g3
e7e5
c1a3
c7c5
b3b4
a5b4
d2d3
b4a3
d1c1
d7d6
8 | R N B Q K B N R 
7 | _ _ _ _ _ P P P 
6 | _ P _ P _ _ _ _ 
5 | _ _ P _ P _ _ _ 
4 | _ _ _ _ _ _ _ _ 
3 | P _ _ P _ _ P P 
2 | P _ P _ P P _ _ 
1 | R N Q _ K B N R 
-------------------
  | A B C D E F G H 

It is white's turn to play.
AI's move: c1a3
Move written: c1a3
[32;1m[Game] [0mPlayer's error code: 0
[32;1m[Game] [0mChecking move validity...
[32;1m[Board] [0mInitializing board...
[32;1m[Board] [0mLoading history file `championship/lizzie-iii-logic-and-proofs/history.csv`...
[32;1m[Board] [0mLoaded 14 move(s).
[32;1m[Board] [0mLoading move file `championship/lizzie-iii-logic-and-proofs/move.csv`...
[32;1m[Board] [0mWhite player is playing c1 to a3.
[32;1m[Board] [0m[5;1mWhite Queen is taking Black Pawn.[0m
[32;1m[Board] [0m
[32;1m[Board] [0m    a b c d e f g h 
[32;1m[Board] [0m  -------------------
[32;1m[Board] [0m8 ||[30;1mr[0m|[30;1mk[0m|[30;1mb[0m|[30;1mQ[0m|[30;1mK[0m|[30;1mb[0m|[30;1mk[0m|[30;1mr[0m|| 8
[32;1m[Board] [0m  -------------------
[32;1m[Board] [0m7 || |[7;1m [0m| |[7;1m [0m| |[30;1mp[0m|[30;1mp[0m|[30;1mp[0m|| 7
[32;1m[Board] [0m  -------------------
[32;1m[Board] [0m6 ||[7;1m [0m|[30;1mp[0m|[7;1m [0m|[30;1mp[0m|[7;1m [0m| |[7;1m [0m| || 6
[32;1m[Board] [0m  -------------------
[32;1m[Board] [0m5 || |[7;1m [0m|[30;1mp[0m|[7;1m [0m|[30;1mp[0m|[7;1m [0m| |[7;1m [0m|| 5
[32;1m[Board] [0m  -------------------
[32;1m[Board] [0m4 ||[7;1m [0m| |[7;1m [0m| |[7;1m [0m| |[7;1m [0m| || 4
[32;1m[Board] [0m  -------------------
[32;1m[Board] [0m3 ||[0;1mQ[0m|[7;1m [0m| |[0;1mp[0m| |[7;1m [0m|[0;1mp[0m|[0;1mp[0m|| 3
[32;1m[Board] [0m  -------------------
[32;1m[Board] [0m2 ||[0;1mp[0m| |[0;1mp[0m| |[0;1mp[0m|[0;1mp[0m|[7;1m [0m| || 2
[32;1m[Board] [0m  -------------------
[32;1m[Board] [0m1 ||[0;1mr[0m|[0;1mk[0m| |[7;1m [0m|[0;1mK[0m|[0;1mb[0m|[0;1mk[0m|[0;1mr[0m|| 1
[32;1m[Board] [0m  -------------------
[32;1m[Board] [0m    a b c d e f g h
[32;1m[Board] [0m
[32;1m[Referee] [0mThis is the turn of the Black player...
[DEBUG] Input history filename: championship/lizzie-iii-logic-and-proofs/history.csv
[DEBUG] Output move file: championship/lizzie-iii-logic-and-proofs/move.csv
starting search...
searched and found best move in search: 1088000
Total nodes searched: 194376
how i see the board before writing next move: Turn: Black
Enpassant: xx	Castling: WK WQ BK BQ 
   ---- ---- ---- ---- ---- ---- ---- ----
8 | r  | n  | b  | q  | k  | b  | n  | r  |
   ---- ---- ---- ---- ---- ---- ---- ----
7 |    |    |    |    |    | p  | p  | p  |
   ---- ---- ---- ---- ---- ---- ---- ----
6 |    | p  |    | p  |    |    |    |    |
   ---- ---- ---- ---- ---- ---- ---- ----
5 |    |    | p  |    | p  |    |    |    |
   ---- ---- ---- ---- ---- ---- ---- ----
4 |    |    |    |    |    |    |    |    |
   ---- ---- ---- ---- ---- ---- ---- ----
3 | Q  |    |    | P  |    |    | P  | P  |
   ---- ---- ---- ---- ---- ---- ---- ----
2 | P  |    | P  |    | P  | P  |    |    |
   ---- ---- ---- ---- ---- ---- ---- ----
1 | R  | N  |    |    | K  | B  | N  | R  |
   ---- ---- ---- ---- ---- ---- ---- ----
    a    b    c    d    e    f    g    h
[DEBUG] [Parser] Wrote to ouput file championship/lizzie-iii-logic-and-proofs/move.csv move : a8a3
[32;1m[Game] [0mPlayer's error code: 0
[32;1m[Game] [0mChecking move validity...
[32;1m[Board] [0mInitializing board...
[32;1m[Board] [0mLoading history file `championship/lizzie-iii-logic-and-proofs/history.csv`...
[32;1m[Board] [0mLoaded 15 move(s).
[32;1m[Board] [0mLoading move file `championship/lizzie-iii-logic-and-proofs/move.csv`...
[32;1m[Board] [0mBlack player is playing a8 to a3.
[32;1m[Board] [0m[5;1mBlack Rook is taking White Queen.[0m
[32;1m[Board] [0m
[32;1m[Board] [0m    a b c d e f g h 
[32;1m[Board] [0m  -------------------
[32;1m[Board] [0m8 ||[7;1m [0m|[30;1mk[0m|[30;1mb[0m|[30;1mQ[0m|[30;1mK[0m|[30;1mb[0m|[30;1mk[0m|[30;1mr[0m|| 8
[32;1m[Board] [0m  -------------------
[32;1m[Board] [0m7 || |[7;1m [0m| |[7;1m [0m| |[30;1mp[0m|[30;1mp[0m|[30;1mp[0m|| 7
[32;1m[Board] [0m  -------------------
[32;1m[Board] [0m6 ||[7;1m [0m|[30;1mp[0m|[7;1m [0m|[30;1mp[0m|[7;1m [0m| |[7;1m [0m| || 6
[32;1m[Board] [0m  -------------------
[32;1m[Board] [0m5 || |[7;1m [0m|[30;1mp[0m|[7;1m [0m|[30;1mp[0m|[7;1m [0m| |[7;1m [0m|| 5
[32;1m[Board] [0m  -------------------
[32;1m[Board] [0m4 ||[7;1m [0m| |[7;1m [0m| |[7;1m [0m| |[7;1m [0m| || 4
[32;1m[Board] [0m  -------------------
[32;1m[Board] [0m3 ||[30;1mr[0m|[7;1m [0m| |[0;1mp[0m| |[7;1m [0m|[0;1mp[0m|[0;1mp[0m|| 3
[32;1m[Board] [0m  -------------------
[32;1m[Board] [0m2 ||[0;1mp[0m| |[0;1mp[0m| |[0;1mp[0m|[0;1mp[0m|[7;1m [0m| || 2
[32;1m[Board] [0m  -------------------
[32;1m[Board] [0m1 ||[0;1mr[0m|[0;1mk[0m| |[7;1m [0m|[0;1mK[0m|[0;1mb[0m|[0;1mk[0m|[0;1mr[0m|| 1
[32;1m[Board] [0m  -------------------
[32;1m[Board] [0m    a b c d e f g h
[32;1m[Board] [0m
[32;1m[Referee] [0mThis is the turn of the White player...
Input file: championship/lizzie-iii-logic-and-proofs/history.csv
Output file: championship/lizzie-iii-logic-and-proofs/move.csv
Turn of: white
Succesful move
h2h3
8 | R N B Q K B N R 
7 | P P P P P P P P 
6 | _ _ _ _ _ _ _ _ 
5 | _ _ _ _ _ _ _ _ 
4 | _ _ _ _ _ _ _ _ 
3 | _ _ _ _ _ _ _ P 
2 | P P P P P P P _ 
1 | R N B Q K B N R 
-------------------
  | A B C D E F G H 

Turn of: black
Succesful move
b7b6
8 | R N B Q K B N R 
7 | P _ P P P P P P 
6 | _ P _ _ _ _ _ _ 
5 | _ _ _ _ _ _ _ _ 
4 | _ _ _ _ _ _ _ _ 
3 | _ _ _ _ _ _ _ P 
2 | P P P P P P P _ 
1 | R N B Q K B N R 
-------------------
  | A B C D E F G H 

Turn of: white
Succesful move
b2b3
8 | R N B Q K B N R 
7 | P _ P P P P P P 
6 | _ P _ _ _ _ _ _ 
5 | _ _ _ _ _ _ _ _ 
4 | _ _ _ _ _ _ _ _ 
3 | _ P _ _ _ _ _ P 
2 | P _ P P P P P _ 
1 | R N B Q K B N R 
-------------------
  | A B C D E F G H 

Turn of: black
Succesful move
a7a5
8 | R N B Q K B N R 
7 | _ _ P P P P P P 
6 | _ P _ _ _ _ _ _ 
5 | P _ _ _ _ _ _ _ 
4 | _ _ _ _ _ _ _ _ 
3 | _ P _ _ _ _ _ P 
2 | P _ P P P P P _ 
1 | R N B Q K B N R 
-------------------
  | A B C D E F G H 

Turn of: white
Succesful move
g2g3
8 | R N B Q K B N R 
7 | _ _ P P P P P P 
6 | _ P _ _ _ _ _ _ 
5 | P _ _ _ _ _ _ _ 
4 | _ _ _ _ _ _ _ _ 
3 | _ P _ _ _ _ P P 
2 | P _ P P P P _ _ 
1 | R N B Q K B N R 
-------------------
  | A B C D E F G H 

Turn of: black
Succesful move
e7e5
8 | R N B Q K B N R 
7 | _ _ P P _ P P P 
6 | _ P _ _ _ _ _ _ 
5 | P _ _ _ P _ _ _ 
4 | _ _ _ _ _ _ _ _ 
3 | _ P _ _ _ _ P P 
2 | P _ P P P P _ _ 
1 | R N B Q K B N R 
-------------------
  | A B C D E F G H 

Turn of: white
Succesful move
c1a3
8 | R N B Q K B N R 
7 | _ _ P P _ P P P 
6 | _ P _ _ _ _ _ _ 
5 | P _ _ _ P _ _ _ 
4 | _ _ _ _ _ _ _ _ 
3 | B P _ _ _ _ P P 
2 | P _ P P P P _ _ 
1 | R N _ Q K B N R 
-------------------
  | A B C D E F G H 

Turn of: black
Succesful move
c7c5
8 | R N B Q K B N R 
7 | _ _ _ P _ P P P 
6 | _ P _ _ _ _ _ _ 
5 | P _ P _ P _ _ _ 
4 | _ _ _ _ _ _ _ _ 
3 | B P _ _ _ _ P P 
2 | P _ P P P P _ _ 
1 | R N _ Q K B N R 
-------------------
  | A B C D E F G H 

Turn of: white
Succesful move
b3b4
8 | R N B Q K B N R 
7 | _ _ _ P _ P P P 
6 | _ P _ _ _ _ _ _ 
5 | P _ P _ P _ _ _ 
4 | _ P _ _ _ _ _ _ 
3 | B _ _ _ _ _ P P 
2 | P _ P P P P _ _ 
1 | R N _ Q K B N R 
-------------------
  | A B C D E F G H 

Turn of: black
Succesful move
a5b4
8 | R N B Q K B N R 
7 | _ _ _ P _ P P P 
6 | _ P _ _ _ _ _ _ 
5 | _ _ P _ P _ _ _ 
4 | _ P _ _ _ _ _ _ 
3 | B _ _ _ _ _ P P 
2 | P _ P P P P _ _ 
1 | R N _ Q K B N R 
-------------------
  | A B C D E F G H 

Turn of: white
Succesful move
d2d3
8 | R N B Q K B N R 
7 | _ _ _ P _ P P P 
6 | _ P _ _ _ _ _ _ 
5 | _ _ P _ P _ _ _ 
4 | _ P _ _ _ _ _ _ 
3 | B _ _ P _ _ P P 
2 | P _ P _ P P _ _ 
1 | R N _ Q K B N R 
-------------------
  | A B C D E F G H 

Turn of: black
Succesful move
b4a3
8 | R N B Q K B N R 
7 | _ _ _ P _ P P P 
6 | _ P _ _ _ _ _ _ 
5 | _ _ P _ P _ _ _ 
4 | _ _ _ _ _ _ _ _ 
3 | P _ _ P _ _ P P 
2 | P _ P _ P P _ _ 
1 | R N _ Q K B N R 
-------------------
  | A B C D E F G H 

Turn of: white
Succesful move
d1c1
8 | R N B Q K B N R 
7 | _ _ _ P _ P P P 
6 | _ P _ _ _ _ _ _ 
5 | _ _ P _ P _ _ _ 
4 | _ _ _ _ _ _ _ _ 
3 | P _ _ P _ _ P P 
2 | P _ P _ P P _ _ 
1 | R N Q _ K B N R 
-------------------
  | A B C D E F G H 

Turn of: black
Succesful move
d7d6
8 | R N B Q K B N R 
7 | _ _ _ _ _ P P P 
6 | _ P _ P _ _ _ _ 
5 | _ _ P _ P _ _ _ 
4 | _ _ _ _ _ _ _ _ 
3 | P _ _ P _ _ P P 
2 | P _ P _ P P _ _ 
1 | R N Q _ K B N R 
-------------------
  | A B C D E F G H 

Turn of: white
Succesful move
c1a3
8 | R N B Q K B N R 
7 | _ _ _ _ _ P P P 
6 | _ P _ P _ _ _ _ 
5 | _ _ P _ P _ _ _ 
4 | _ _ _ _ _ _ _ _ 
3 | Q _ _ P _ _ P P 
2 | P _ P _ P P _ _ 
1 | R N _ _ K B N R 
-------------------
  | A B C D E F G H 

Turn of: black
Succesful move
a8a3
8 | _ N B Q K B N R 
7 | _ _ _ _ _ P P P 
6 | _ P _ P _ _ _ _ 
5 | _ _ P _ P _ _ _ 
4 | _ _ _ _ _ _ _ _ 
3 | R _ _ P _ _ P P 
2 | P _ P _ P P _ _ 
1 | R N _ _ K B N R 
-------------------
  | A B C D E F G H 

We are playing as White
Move history:
h2h3
b7b6
b2b3
a7a5
g2g3
e7e5
c1a3
c7c5
b3b4
a5b4
d2d3
b4a3
d1c1
d7d6
c1a3
a8a3
8 | _ N B Q K B N R 
7 | _ _ _ _ _ P P P 
6 | _ P _ P _ _ _ _ 
5 | _ _ P _ P _ _ _ 
4 | _ _ _ _ _ _ _ _ 
3 | R _ _ P _ _ P P 
2 | P _ P _ P P _ _ 
1 | R N _ _ K B N R 
-------------------
  | A B C D E F G H 

It is white's turn to play.
AI's move: g3g4
Move written: g3g4
[32;1m[Game] [0mPlayer's error code: 0
[32;1m[Game] [0mChecking move validity...
[32;1m[Board] [0mInitializing board...
[32;1m[Board] [0mLoading history file `championship/lizzie-iii-logic-and-proofs/history.csv`...
[32;1m[Board] [0mLoaded 16 move(s).
[32;1m[Board] [0mLoading move file `championship/lizzie-iii-logic-and-proofs/move.csv`...
[32;1m[Board] [0mWhite player is playing g3 to g4.
[32;1m[Board] [0m
[32;1m[Board] [0m    a b c d e f g h 
[32;1m[Board] [0m  -------------------
[32;1m[Board] [0m8 ||[7;1m [0m|[30;1mk[0m|[30;1mb[0m|[30;1mQ[0m|[30;1mK[0m|[30;1mb[0m|[30;1mk[0m|[30;1mr[0m|| 8
[32;1m[Board] [0m  -------------------
[32;1m[Board] [0m7 || |[7;1m [0m| |[7;1m [0m| |[30;1mp[0m|[30;1mp[0m|[30;1mp[0m|| 7
[32;1m[Board] [0m  -------------------
[32;1m[Board] [0m6 ||[7;1m [0m|[30;1mp[0m|[7;1m [0m|[30;1mp[0m|[7;1m [0m| |[7;1m [0m| || 6
[32;1m[Board] [0m  -------------------
[32;1m[Board] [0m5 || |[7;1m [0m|[30;1mp[0m|[7;1m [0m|[30;1mp[0m|[7;1m [0m| |[7;1m [0m|| 5
[32;1m[Board] [0m  -------------------
[32;1m[Board] [0m4 ||[7;1m [0m| |[7;1m [0m| |[7;1m [0m| |[0;1mp[0m| || 4
[32;1m[Board] [0m  -------------------
[32;1m[Board] [0m3 ||[30;1mr[0m|[7;1m [0m| |[0;1mp[0m| |[7;1m [0m| |[0;1mp[0m|| 3
[32;1m[Board] [0m  -------------------
[32;1m[Board] [0m2 ||[0;1mp[0m| |[0;1mp[0m| |[0;1mp[0m|[0;1mp[0m|[7;1m [0m| || 2
[32;1m[Board] [0m  -------------------
[32;1m[Board] [0m1 ||[0;1mr[0m|[0;1mk[0m| |[7;1m [0m|[0;1mK[0m|[0;1mb[0m|[0;1mk[0m|[0;1mr[0m|| 1
[32;1m[Board] [0m  -------------------
[32;1m[Board] [0m    a b c d e f g h
[32;1m[Board] [0m
[32;1m[Referee] [0mThis is the turn of the Black player...
[DEBUG] Input history filename: championship/lizzie-iii-logic-and-proofs/history.csv
[DEBUG] Output move file: championship/lizzie-iii-logic-and-proofs/move.csv
starting search...
searched and found best move in search: 36904
Total nodes searched: 61068
how i see the board before writing next move: Turn: Black
Enpassant: xx	Castling: WK WQ BK x
   ---- ---- ---- ---- ---- ---- ---- ----
8 |    | n  | b  | q  | k  | b  | n  | r  |
   ---- ---- ---- ---- ---- ---- ---- ----
7 |    |    |    |    |    | p  | p  | p  |
   ---- ---- ---- ---- ---- ---- ---- ----
6 |    | p  |    | p  |    |    |    |    |
   ---- ---- ---- ---- ---- ---- ---- ----
5 |    |    | p  |    | p  |    |    |    |
   ---- ---- ---- ---- ---- ---- ---- ----
4 |    |    |    |    |    |    | P  |    |
   ---- ---- ---- ---- ---- ---- ---- ----
3 | r  |    |    | P  |    |    |    | P  |
   ---- ---- ---- ---- ---- ---- ---- ----
2 | P  |    | P  |    | P  | P  |    |    |
   ---- ---- ---- ---- ---- ---- ---- ----
1 | R  | N  |    |    | K  | B  | N  | R  |
   ---- ---- ---- ---- ---- ---- ---- ----
    a    b    c    d    e    f    g    h
[DEBUG] [Parser] Wrote to ouput file championship/lizzie-iii-logic-and-proofs/move.csv move : a3a8
[32;1m[Game] [0mPlayer's error code: 0
[32;1m[Game] [0mChecking move validity...
[32;1m[Board] [0mInitializing board...
[32;1m[Board] [0mLoading history file `championship/lizzie-iii-logic-and-proofs/history.csv`...
[32;1m[Board] [0mLoaded 17 move(s).
[32;1m[Board] [0mLoading move file `championship/lizzie-iii-logic-and-proofs/move.csv`...
[32;1m[Board] [0mBlack player is playing a3 to a8.
[32;1m[Board] [0m
[32;1m[Board] [0m    a b c d e f g h 
[32;1m[Board] [0m  -------------------
[32;1m[Board] [0m8 ||[30;1mr[0m|[30;1mk[0m|[30;1mb[0m|[30;1mQ[0m|[30;1mK[0m|[30;1mb[0m|[30;1mk[0m|[30;1mr[0m|| 8
[32;1m[Board] [0m  -------------------
[32;1m[Board] [0m7 || |[7;1m [0m| |[7;1m [0m| |[30;1mp[0m|[30;1mp[0m|[30;1mp[0m|| 7
[32;1m[Board] [0m  -------------------
[32;1m[Board] [0m6 ||[7;1m [0m|[30;1mp[0m|[7;1m [0m|[30;1mp[0m|[7;1m [0m| |[7;1m [0m| || 6
[32;1m[Board] [0m  -------------------
[32;1m[Board] [0m5 || |[7;1m [0m|[30;1mp[0m|[7;1m [0m|[30;1mp[0m|[7;1m [0m| |[7;1m [0m|| 5
[32;1m[Board] [0m  -------------------
[32;1m[Board] [0m4 ||[7;1m [0m| |[7;1m [0m| |[7;1m [0m| |[0;1mp[0m| || 4
[32;1m[Board] [0m  -------------------
[32;1m[Board] [0m3 || |[7;1m [0m| |[0;1mp[0m| |[7;1m [0m| |[0;1mp[0m|| 3
[32;1m[Board] [0m  -------------------
[32;1m[Board] [0m2 ||[0;1mp[0m| |[0;1mp[0m| |[0;1mp[0m|[0;1mp[0m|[7;1m [0m| || 2
[32;1m[Board] [0m  -------------------
[32;1m[Board] [0m1 ||[0;1mr[0m|[0;1mk[0m| |[7;1m [0m|[0;1mK[0m|[0;1mb[0m|[0;1mk[0m|[0;1mr[0m|| 1
[32;1m[Board] [0m  -------------------
[32;1m[Board] [0m    a b c d e f g h
[32;1m[Board] [0m
[32;1m[Referee] [0mThis is the turn of the White player...
Input file: championship/lizzie-iii-logic-and-proofs/history.csv
Output file: championship/lizzie-iii-logic-and-proofs/move.csv
Turn of: white
Succesful move
h2h3
8 | R N B Q K B N R 
7 | P P P P P P P P 
6 | _ _ _ _ _ _ _ _ 
5 | _ _ _ _ _ _ _ _ 
4 | _ _ _ _ _ _ _ _ 
3 | _ _ _ _ _ _ _ P 
2 | P P P P P P P _ 
1 | R N B Q K B N R 
-------------------
  | A B C D E F G H 

Turn of: black
Succesful move
b7b6
8 | R N B Q K B N R 
7 | P _ P P P P P P 
6 | _ P _ _ _ _ _ _ 
5 | _ _ _ _ _ _ _ _ 
4 | _ _ _ _ _ _ _ _ 
3 | _ _ _ _ _ _ _ P 
2 | P P P P P P P _ 
1 | R N B Q K B N R 
-------------------
  | A B C D E F G H 

Turn of: white
Succesful move
b2b3
8 | R N B Q K B N R 
7 | P _ P P P P P P 
6 | _ P _ _ _ _ _ _ 
5 | _ _ _ _ _ _ _ _ 
4 | _ _ _ _ _ _ _ _ 
3 | _ P _ _ _ _ _ P 
2 | P _ P P P P P _ 
1 | R N B Q K B N R 
-------------------
  | A B C D E F G H 

Turn of: black
Succesful move
a7a5
8 | R N B Q K B N R 
7 | _ _ P P P P P P 
6 | _ P _ _ _ _ _ _ 
5 | P _ _ _ _ _ _ _ 
4 | _ _ _ _ _ _ _ _ 
3 | _ P _ _ _ _ _ P 
2 | P _ P P P P P _ 
1 | R N B Q K B N R 
-------------------
  | A B C D E F G H 

Turn of: white
Succesful move
g2g3
8 | R N B Q K B N R 
7 | _ _ P P P P P P 
6 | _ P _ _ _ _ _ _ 
5 | P _ _ _ _ _ _ _ 
4 | _ _ _ _ _ _ _ _ 
3 | _ P _ _ _ _ P P 
2 | P _ P P P P _ _ 
1 | R N B Q K B N R 
-------------------
  | A B C D E F G H 

Turn of: black
Succesful move
e7e5
8 | R N B Q K B N R 
7 | _ _ P P _ P P P 
6 | _ P _ _ _ _ _ _ 
5 | P _ _ _ P _ _ _ 
4 | _ _ _ _ _ _ _ _ 
3 | _ P _ _ _ _ P P 
2 | P _ P P P P _ _ 
1 | R N B Q K B N R 
-------------------
  | A B C D E F G H 

Turn of: white
Succesful move
c1a3
8 | R N B Q K B N R 
7 | _ _ P P _ P P P 
6 | _ P _ _ _ _ _ _ 
5 | P _ _ _ P _ _ _ 
4 | _ _ _ _ _ _ _ _ 
3 | B P _ _ _ _ P P 
2 | P _ P P P P _ _ 
1 | R N _ Q K B N R 
-------------------
  | A B C D E F G H 

Turn of: black
Succesful move
c7c5
8 | R N B Q K B N R 
7 | _ _ _ P _ P P P 
6 | _ P _ _ _ _ _ _ 
5 | P _ P _ P _ _ _ 
4 | _ _ _ _ _ _ _ _ 
3 | B P _ _ _ _ P P 
2 | P _ P P P P _ _ 
1 | R N _ Q K B N R 
-------------------
  | A B C D E F G H 

Turn of: white
Succesful move
b3b4
8 | R N B Q K B N R 
7 | _ _ _ P _ P P P 
6 | _ P _ _ _ _ _ _ 
5 | P _ P _ P _ _ _ 
4 | _ P _ _ _ _ _ _ 
3 | B _ _ _ _ _ P P 
2 | P _ P P P P _ _ 
1 | R N _ Q K B N R 
-------------------
  | A B C D E F G H 

Turn of: black
Succesful move
a5b4
8 | R N B Q K B N R 
7 | _ _ _ P _ P P P 
6 | _ P _ _ _ _ _ _ 
5 | _ _ P _ P _ _ _ 
4 | _ P _ _ _ _ _ _ 
3 | B _ _ _ _ _ P P 
2 | P _ P P P P _ _ 
1 | R N _ Q K B N R 
-------------------
  | A B C D E F G H 

Turn of: white
Succesful move
d2d3
8 | R N B Q K B N R 
7 | _ _ _ P _ P P P 
6 | _ P _ _ _ _ _ _ 
5 | _ _ P _ P _ _ _ 
4 | _ P _ _ _ _ _ _ 
3 | B _ _ P _ _ P P 
2 | P _ P _ P P _ _ 
1 | R N _ Q K B N R 
-------------------
  | A B C D E F G H 

Turn of: black
Succesful move
b4a3
8 | R N B Q K B N R 
7 | _ _ _ P _ P P P 
6 | _ P _ _ _ _ _ _ 
5 | _ _ P _ P _ _ _ 
4 | _ _ _ _ _ _ _ _ 
3 | P _ _ P _ _ P P 
2 | P _ P _ P P _ _ 
1 | R N _ Q K B N R 
-------------------
  | A B C D E F G H 

Turn of: white
Succesful move
d1c1
8 | R N B Q K B N R 
7 | _ _ _ P _ P P P 
6 | _ P _ _ _ _ _ _ 
5 | _ _ P _ P _ _ _ 
4 | _ _ _ _ _ _ _ _ 
3 | P _ _ P _ _ P P 
2 | P _ P _ P P _ _ 
1 | R N Q _ K B N R 
-------------------
  | A B C D E F G H 

Turn of: black
Succesful move
d7d6
8 | R N B Q K B N R 
7 | _ _ _ _ _ P P P 
6 | _ P _ P _ _ _ _ 
5 | _ _ P _ P _ _ _ 
4 | _ _ _ _ _ _ _ _ 
3 | P _ _ P _ _ P P 
2 | P _ P _ P P _ _ 
1 | R N Q _ K B N R 
-------------------
  | A B C D E F G H 

Turn of: white
Succesful move
c1a3
8 | R N B Q K B N R 
7 | _ _ _ _ _ P P P 
6 | _ P _ P _ _ _ _ 
5 | _ _ P _ P _ _ _ 
4 | _ _ _ _ _ _ _ _ 
3 | Q _ _ P _ _ P P 
2 | P _ P _ P P _ _ 
1 | R N _ _ K B N R 
-------------------
  | A B C D E F G H 

Turn of: black
Succesful move
a8a3
8 | _ N B Q K B N R 
7 | _ _ _ _ _ P P P 
6 | _ P _ P _ _ _ _ 
5 | _ _ P _ P _ _ _ 
4 | _ _ _ _ _ _ _ _ 
3 | R _ _ P _ _ P P 
2 | P _ P _ P P _ _ 
1 | R N _ _ K B N R 
-------------------
  | A B C D E F G H 

Turn of: white
Succesful move
g3g4
8 | _ N B Q K B N R 
7 | _ _ _ _ _ P P P 
6 | _ P _ P _ _ _ _ 
5 | _ _ P _ P _ _ _ 
4 | _ _ _ _ _ _ P _ 
3 | R _ _ P _ _ _ P 
2 | P _ P _ P P _ _ 
1 | R N _ _ K B N R 
-------------------
  | A B C D E F G H 

Turn of: black
Succesful move
a3a8
8 | R N B Q K B N R 
7 | _ _ _ _ _ P P P 
6 | _ P _ P _ _ _ _ 
5 | _ _ P _ P _ _ _ 
4 | _ _ _ _ _ _ P _ 
3 | _ _ _ P _ _ _ P 
2 | P _ P _ P P _ _ 
1 | R N _ _ K B N R 
-------------------
  | A B C D E F G H 

We are playing as White
Move history:
h2h3
b7b6
b2b3
a7a5
g2g3
e7e5
c1a3
c7c5
b3b4
a5b4
d2d3
b4a3
d1c1
d7d6
c1a3
a8a3
g3g4
a3a8
8 | R N B Q K B N R 
7 | _ _ _ _ _ P P P 
6 | _ P _ P _ _ _ _ 
5 | _ _ P _ P _ _ _ 
4 | _ _ _ _ _ _ P _ 
3 | _ _ _ P _ _ _ P 
2 | P _ P _ P P _ _ 
1 | R N _ _ K B N R 
-------------------
  | A B C D E F G H 

It is white's turn to play.
AI's move: e1d2
Move written: e1d2
[32;1m[Game] [0mPlayer's error code: 0
[32;1m[Game] [0mChecking move validity...
[32;1m[Board] [0mInitializing board...
[32;1m[Board] [0mLoading history file `championship/lizzie-iii-logic-and-proofs/history.csv`...
[32;1m[Board] [0mLoaded 18 move(s).
[32;1m[Board] [0mLoading move file `championship/lizzie-iii-logic-and-proofs/move.csv`...
[32;1m[Board] [0mWhite player is playing e1 to d2.
[32;1m[Board] [0m
[32;1m[Board] [0m    a b c d e f g h 
[32;1m[Board] [0m  -------------------
[32;1m[Board] [0m8 ||[30;1mr[0m|[30;1mk[0m|[30;1mb[0m|[30;1mQ[0m|[30;1mK[0m|[30;1mb[0m|[30;1mk[0m|[30;1mr[0m|| 8
[32;1m[Board] [0m  -------------------
[32;1m[Board] [0m7 || |[7;1m [0m| |[7;1m [0m| |[30;1mp[0m|[30;1mp[0m|[30;1mp[0m|| 7
[32;1m[Board] [0m  -------------------
[32;1m[Board] [0m6 ||[7;1m [0m|[30;1mp[0m|[7;1m [0m|[30;1mp[0m|[7;1m [0m| |[7;1m [0m| || 6
[32;1m[Board] [0m  -------------------
[32;1m[Board] [0m5 || |[7;1m [0m|[30;1mp[0m|[7;1m [0m|[30;1mp[0m|[7;1m [0m| |[7;1m [0m|| 5
[32;1m[Board] [0m  -------------------
[32;1m[Board] [0m4 ||[7;1m [0m| |[7;1m [0m| |[7;1m [0m| |[0;1mp[0m| || 4
[32;1m[Board] [0m  -------------------
[32;1m[Board] [0m3 || |[7;1m [0m| |[0;1mp[0m| |[7;1m [0m| |[0;1mp[0m|| 3
[32;1m[Board] [0m  -------------------
[32;1m[Board] [0m2 ||[0;1mp[0m| |[0;1mp[0m|[0;1mK[0m|[0;1mp[0m|[0;1mp[0m|[7;1m [0m| || 2
[32;1m[Board] [0m  -------------------
[32;1m[Board] [0m1 ||[0;1mr[0m|[0;1mk[0m| |[7;1m [0m| |[0;1mb[0m|[0;1mk[0m|[0;1mr[0m|| 1
[32;1m[Board] [0m  -------------------
[32;1m[Board] [0m    a b c d e f g h
[32;1m[Board] [0m
[32;1m[Referee] [0mThis is the turn of the Black player...
[DEBUG] Input history filename: championship/lizzie-iii-logic-and-proofs/history.csv
[DEBUG] Output move file: championship/lizzie-iii-logic-and-proofs/move.csv
starting search...
searched and found best move in search: 42307
Total nodes searched: 24508
how i see the board before writing next move: Turn: Black
Enpassant: xx	Castling: xxBK x
   ---- ---- ---- ---- ---- ---- ---- ----
8 | r  | n  | b  | q  | k  | b  | n  | r  |
   ---- ---- ---- ---- ---- ---- ---- ----
7 |    |    |    |    |    | p  | p  | p  |
   ---- ---- ---- ---- ---- ---- ---- ----
6 |    | p  |    | p  |    |    |    |    |
   ---- ---- ---- ---- ---- ---- ---- ----
5 |    |    | p  |    | p  |    |    |    |
   ---- ---- ---- ---- ---- ---- ---- ----
4 |    |    |    |    |    |    | P  |    |
   ---- ---- ---- ---- ---- ---- ---- ----
3 |    |    |    | P  |    |    |    | P  |
   ---- ---- ---- ---- ---- ---- ---- ----
2 | P  |    | P  | K  | P  | P  |    |    |
   ---- ---- ---- ---- ---- ---- ---- ----
1 | R  | N  |    |    |    | B  | N  | R  |
   ---- ---- ---- ---- ---- ---- ---- ----
    a    b    c    d    e    f    g    h
[DEBUG] [Parser] Wrote to ouput file championship/lizzie-iii-logic-and-proofs/move.csv move : d8f6
[32;1m[Game] [0mPlayer's error code: 0
[32;1m[Game] [0mChecking move validity...
[32;1m[Board] [0mInitializing board...
[32;1m[Board] [0mLoading history file `championship/lizzie-iii-logic-and-proofs/history.csv`...
[32;1m[Board] [0mLoaded 19 move(s).
[32;1m[Board] [0mLoading move file `championship/lizzie-iii-logic-and-proofs/move.csv`...
[32;1m[Board] [0mBlack player is playing d8 to f6.
[32;1m[Board] [0m
[32;1m[Board] [0m    a b c d e f g h 
[32;1m[Board] [0m  -------------------
[32;1m[Board] [0m8 ||[30;1mr[0m|[30;1mk[0m|[30;1mb[0m| |[30;1mK[0m|[30;1mb[0m|[30;1mk[0m|[30;1mr[0m|| 8
[32;1m[Board] [0m  -------------------
[32;1m[Board] [0m7 || |[7;1m [0m| |[7;1m [0m| |[30;1mp[0m|[30;1mp[0m|[30;1mp[0m|| 7
[32;1m[Board] [0m  -------------------
[32;1m[Board] [0m6 ||[7;1m [0m|[30;1mp[0m|[7;1m [0m|[30;1mp[0m|[7;1m [0m|[30;1mQ[0m|[7;1m [0m| || 6
[32;1m[Board] [0m  -------------------
[32;1m[Board] [0m5 || |[7;1m [0m|[30;1mp[0m|[7;1m [0m|[30;1mp[0m|[7;1m [0m| |[7;1m [0m|| 5
[32;1m[Board] [0m  -------------------
[32;1m[Board] [0m4 ||[7;1m [0m| |[7;1m [0m| |[7;1m [0m| |[0;1mp[0m| || 4
[32;1m[Board] [0m  -------------------
[32;1m[Board] [0m3 || |[7;1m [0m| |[0;1mp[0m| |[7;1m [0m| |[0;1mp[0m|| 3
[32;1m[Board] [0m  -------------------
[32;1m[Board] [0m2 ||[0;1mp[0m| |[0;1mp[0m|[0;1mK[0m|[0;1mp[0m|[0;1mp[0m|[7;1m [0m| || 2
[32;1m[Board] [0m  -------------------
[32;1m[Board] [0m1 ||[0;1mr[0m|[0;1mk[0m| |[7;1m [0m| |[0;1mb[0m|[0;1mk[0m|[0;1mr[0m|| 1
[32;1m[Board] [0m  -------------------
[32;1m[Board] [0m    a b c d e f g h
[32;1m[Board] [0m
[32;1m[Referee] [0mThis is the turn of the White player...
Input file: championship/lizzie-iii-logic-and-proofs/history.csv
Output file: championship/lizzie-iii-logic-and-proofs/move.csv
Turn of: white
Succesful move
h2h3
8 | R N B Q K B N R 
7 | P P P P P P P P 
6 | _ _ _ _ _ _ _ _ 
5 | _ _ _ _ _ _ _ _ 
4 | _ _ _ _ _ _ _ _ 
3 | _ _ _ _ _ _ _ P 
2 | P P P P P P P _ 
1 | R N B Q K B N R 
-------------------
  | A B C D E F G H 

Turn of: black
Succesful move
b7b6
8 | R N B Q K B N R 
7 | P _ P P P P P P 
6 | _ P _ _ _ _ _ _ 
5 | _ _ _ _ _ _ _ _ 
4 | _ _ _ _ _ _ _ _ 
3 | _ _ _ _ _ _ _ P 
2 | P P P P P P P _ 
1 | R N B Q K B N R 
-------------------
  | A B C D E F G H 

Turn of: white
Succesful move
b2b3
8 | R N B Q K B N R 
7 | P _ P P P P P P 
6 | _ P _ _ _ _ _ _ 
5 | _ _ _ _ _ _ _ _ 
4 | _ _ _ _ _ _ _ _ 
3 | _ P _ _ _ _ _ P 
2 | P _ P P P P P _ 
1 | R N B Q K B N R 
-------------------
  | A B C D E F G H 

Turn of: black
Succesful move
a7a5
8 | R N B Q K B N R 
7 | _ _ P P P P P P 
6 | _ P _ _ _ _ _ _ 
5 | P _ _ _ _ _ _ _ 
4 | _ _ _ _ _ _ _ _ 
3 | _ P _ _ _ _ _ P 
2 | P _ P P P P P _ 
1 | R N B Q K B N R 
-------------------
  | A B C D E F G H 

Turn of: white
Succesful move
g2g3
8 | R N B Q K B N R 
7 | _ _ P P P P P P 
6 | _ P _ _ _ _ _ _ 
5 | P _ _ _ _ _ _ _ 
4 | _ _ _ _ _ _ _ _ 
3 | _ P _ _ _ _ P P 
2 | P _ P P P P _ _ 
1 | R N B Q K B N R 
-------------------
  | A B C D E F G H 

Turn of: black
Succesful move
e7e5
8 | R N B Q K B N R 
7 | _ _ P P _ P P P 
6 | _ P _ _ _ _ _ _ 
5 | P _ _ _ P _ _ _ 
4 | _ _ _ _ _ _ _ _ 
3 | _ P _ _ _ _ P P 
2 | P _ P P P P _ _ 
1 | R N B Q K B N R 
-------------------
  | A B C D E F G H 

Turn of: white
Succesful move
c1a3
8 | R N B Q K B N R 
7 | _ _ P P _ P P P 
6 | _ P _ _ _ _ _ _ 
5 | P _ _ _ P _ _ _ 
4 | _ _ _ _ _ _ _ _ 
3 | B P _ _ _ _ P P 
2 | P _ P P P P _ _ 
1 | R N _ Q K B N R 
-------------------
  | A B C D E F G H 

Turn of: black
Succesful move
c7c5
8 | R N B Q K B N R 
7 | _ _ _ P _ P P P 
6 | _ P _ _ _ _ _ _ 
5 | P _ P _ P _ _ _ 
4 | _ _ _ _ _ _ _ _ 
3 | B P _ _ _ _ P P 
2 | P _ P P P P _ _ 
1 | R N _ Q K B N R 
-------------------
  | A B C D E F G H 

Turn of: white
Succesful move
b3b4
8 | R N B Q K B N R 
7 | _ _ _ P _ P P P 
6 | _ P _ _ _ _ _ _ 
5 | P _ P _ P _ _ _ 
4 | _ P _ _ _ _ _ _ 
3 | B _ _ _ _ _ P P 
2 | P _ P P P P _ _ 
1 | R N _ Q K B N R 
-------------------
  | A B C D E F G H 

Turn of: black
Succesful move
a5b4
8 | R N B Q K B N R 
7 | _ _ _ P _ P P P 
6 | _ P _ _ _ _ _ _ 
5 | _ _ P _ P _ _ _ 
4 | _ P _ _ _ _ _ _ 
3 | B _ _ _ _ _ P P 
2 | P _ P P P P _ _ 
1 | R N _ Q K B N R 
-------------------
  | A B C D E F G H 

Turn of: white
Succesful move
d2d3
8 | R N B Q K B N R 
7 | _ _ _ P _ P P P 
6 | _ P _ _ _ _ _ _ 
5 | _ _ P _ P _ _ _ 
4 | _ P _ _ _ _ _ _ 
3 | B _ _ P _ _ P P 
2 | P _ P _ P P _ _ 
1 | R N _ Q K B N R 
-------------------
  | A B C D E F G H 

Turn of: black
Succesful move
b4a3
8 | R N B Q K B N R 
7 | _ _ _ P _ P P P 
6 | _ P _ _ _ _ _ _ 
5 | _ _ P _ P _ _ _ 
4 | _ _ _ _ _ _ _ _ 
3 | P _ _ P _ _ P P 
2 | P _ P _ P P _ _ 
1 | R N _ Q K B N R 
-------------------
  | A B C D E F G H 

Turn of: white
Succesful move
d1c1
8 | R N B Q K B N R 
7 | _ _ _ P _ P P P 
6 | _ P _ _ _ _ _ _ 
5 | _ _ P _ P _ _ _ 
4 | _ _ _ _ _ _ _ _ 
3 | P _ _ P _ _ P P 
2 | P _ P _ P P _ _ 
1 | R N Q _ K B N R 
-------------------
  | A B C D E F G H 

Turn of: black
Succesful move
d7d6
8 | R N B Q K B N R 
7 | _ _ _ _ _ P P P 
6 | _ P _ P _ _ _ _ 
5 | _ _ P _ P _ _ _ 
4 | _ _ _ _ _ _ _ _ 
3 | P _ _ P _ _ P P 
2 | P _ P _ P P _ _ 
1 | R N Q _ K B N R 
-------------------
  | A B C D E F G H 

Turn of: white
Succesful move
c1a3
8 | R N B Q K B N R 
7 | _ _ _ _ _ P P P 
6 | _ P _ P _ _ _ _ 
5 | _ _ P _ P _ _ _ 
4 | _ _ _ _ _ _ _ _ 
3 | Q _ _ P _ _ P P 
2 | P _ P _ P P _ _ 
1 | R N _ _ K B N R 
-------------------
  | A B C D E F G H 

Turn of: black
Succesful move
a8a3
8 | _ N B Q K B N R 
7 | _ _ _ _ _ P P P 
6 | _ P _ P _ _ _ _ 
5 | _ _ P _ P _ _ _ 
4 | _ _ _ _ _ _ _ _ 
3 | R _ _ P _ _ P P 
2 | P _ P _ P P _ _ 
1 | R N _ _ K B N R 
-------------------
  | A B C D E F G H 

Turn of: white
Succesful move
g3g4
8 | _ N B Q K B N R 
7 | _ _ _ _ _ P P P 
6 | _ P _ P _ _ _ _ 
5 | _ _ P _ P _ _ _ 
4 | _ _ _ _ _ _ P _ 
3 | R _ _ P _ _ _ P 
2 | P _ P _ P P _ _ 
1 | R N _ _ K B N R 
-------------------
  | A B C D E F G H 

Turn of: black
Succesful move
a3a8
8 | R N B Q K B N R 
7 | _ _ _ _ _ P P P 
6 | _ P _ P _ _ _ _ 
5 | _ _ P _ P _ _ _ 
4 | _ _ _ _ _ _ P _ 
3 | _ _ _ P _ _ _ P 
2 | P _ P _ P P _ _ 
1 | R N _ _ K B N R 
-------------------
  | A B C D E F G H 

Turn of: white
Succesful move
e1d2
8 | R N B Q K B N R 
7 | _ _ _ _ _ P P P 
6 | _ P _ P _ _ _ _ 
5 | _ _ P _ P _ _ _ 
4 | _ _ _ _ _ _ P _ 
3 | _ _ _ P _ _ _ P 
2 | P _ P K P P _ _ 
1 | R N _ _ _ B N R 
-------------------
  | A B C D E F G H 

Turn of: black
Succesful move
d8f6
8 | R N B _ K B N R 
7 | _ _ _ _ _ P P P 
6 | _ P _ P _ Q _ _ 
5 | _ _ P _ P _ _ _ 
4 | _ _ _ _ _ _ P _ 
3 | _ _ _ P _ _ _ P 
2 | P _ P K P P _ _ 
1 | R N _ _ _ B N R 
-------------------
  | A B C D E F G H 

We are playing as White
Move history:
h2h3
b7b6
b2b3
a7a5
g2g3
e7e5
c1a3
c7c5
b3b4
a5b4
d2d3
b4a3
d1c1
d7d6
c1a3
a8a3
g3g4
a3a8
e1d2
d8f6
8 | R N B _ K B N R 
7 | _ _ _ _ _ P P P 
6 | _ P _ P _ Q _ _ 
5 | _ _ P _ P _ _ _ 
4 | _ _ _ _ _ _ P _ 
3 | _ _ _ P _ _ _ P 
2 | P _ P K P P _ _ 
1 | R N _ _ _ B N R 
-------------------
  | A B C D E F G H 

It is white's turn to play.
AI's move: d2e3
Move written: d2e3
[32;1m[Game] [0mPlayer's error code: 0
[32;1m[Game] [0mChecking move validity...
[32;1m[Board] [0mInitializing board...
[32;1m[Board] [0mLoading history file `championship/lizzie-iii-logic-and-proofs/history.csv`...
[32;1m[Board] [0mLoaded 20 move(s).
[32;1m[Board] [0mLoading move file `championship/lizzie-iii-logic-and-proofs/move.csv`...
[32;1m[Board] [0mWhite player is playing d2 to e3.
[32;1m[Board] [0m
[32;1m[Board] [0m    a b c d e f g h 
[32;1m[Board] [0m  -------------------
[32;1m[Board] [0m8 ||[30;1mr[0m|[30;1mk[0m|[30;1mb[0m| |[30;1mK[0m|[30;1mb[0m|[30;1mk[0m|[30;1mr[0m|| 8
[32;1m[Board] [0m  -------------------
[32;1m[Board] [0m7 || |[7;1m [0m| |[7;1m [0m| |[30;1mp[0m|[30;1mp[0m|[30;1mp[0m|| 7
[32;1m[Board] [0m  -------------------
[32;1m[Board] [0m6 ||[7;1m [0m|[30;1mp[0m|[7;1m [0m|[30;1mp[0m|[7;1m [0m|[30;1mQ[0m|[7;1m [0m| || 6
[32;1m[Board] [0m  -------------------
[32;1m[Board] [0m5 || |[7;1m [0m|[30;1mp[0m|[7;1m [0m|[30;1mp[0m|[7;1m [0m| |[7;1m [0m|| 5
[32;1m[Board] [0m  -------------------
[32;1m[Board] [0m4 ||[7;1m [0m| |[7;1m [0m| |[7;1m [0m| |[0;1mp[0m| || 4
[32;1m[Board] [0m  -------------------
[32;1m[Board] [0m3 || |[7;1m [0m| |[0;1mp[0m|[0;1mK[0m|[7;1m [0m| |[0;1mp[0m|| 3
[32;1m[Board] [0m  -------------------
[32;1m[Board] [0m2 ||[0;1mp[0m| |[0;1mp[0m| |[0;1mp[0m|[0;1mp[0m|[7;1m [0m| || 2
[32;1m[Board] [0m  -------------------
[32;1m[Board] [0m1 ||[0;1mr[0m|[0;1mk[0m| |[7;1m [0m| |[0;1mb[0m|[0;1mk[0m|[0;1mr[0m|| 1
[32;1m[Board] [0m  -------------------
[32;1m[Board] [0m    a b c d e f g h
[32;1m[Board] [0m
[32;1m[Referee] [0mThis is the turn of the Black player...
[DEBUG] Input history filename: championship/lizzie-iii-logic-and-proofs/history.csv
[DEBUG] Output move file: championship/lizzie-iii-logic-and-proofs/move.csv
starting search...
searched and found best move in search: 43349
Total nodes searched: 30209
how i see the board before writing next move: Turn: Black
Enpassant: xx	Castling: xxBK x
   ---- ---- ---- ---- ---- ---- ---- ----
8 | r  | n  | b  |    | k  | b  | n  | r  |
   ---- ---- ---- ---- ---- ---- ---- ----
7 |    |    |    |    |    | p  | p  | p  |
   ---- ---- ---- ---- ---- ---- ---- ----
6 |    | p  |    | p  |    | q  |    |    |
   ---- ---- ---- ---- ---- ---- ---- ----
5 |    |    | p  |    | p  |    |    |    |
   ---- ---- ---- ---- ---- ---- ---- ----
4 |    |    |    |    |    |    | P  |    |
   ---- ---- ---- ---- ---- ---- ---- ----
3 |    |    |    | P  | K  |    |    | P  |
   ---- ---- ---- ---- ---- ---- ---- ----
2 | P  |    | P  |    | P  | P  |    |    |
   ---- ---- ---- ---- ---- ---- ---- ----
1 | R  | N  |    |    |    | B  | N  | R  |
   ---- ---- ---- ---- ---- ---- ---- ----
    a    b    c    d    e    f    g    h
[DEBUG] [Parser] Wrote to ouput file championship/lizzie-iii-logic-and-proofs/move.csv move : f6f4
[32;1m[Game] [0mPlayer's error code: 0
[32;1m[Game] [0mChecking move validity...
[32;1m[Board] [0mInitializing board...
[32;1m[Board] [0mLoading history file `championship/lizzie-iii-logic-and-proofs/history.csv`...
[32;1m[Board] [0mLoaded 21 move(s).
[32;1m[Board] [0mLoading move file `championship/lizzie-iii-logic-and-proofs/move.csv`...
[32;1m[Board] [0mBlack player is playing f6 to f4.
[32;1m[Board] [0m
[32;1m[Board] [0m    a b c d e f g h 
[32;1m[Board] [0m  -------------------
[32;1m[Board] [0m8 ||[30;1mr[0m|[30;1mk[0m|[30;1mb[0m| |[30;1mK[0m|[30;1mb[0m|[30;1mk[0m|[30;1mr[0m|| 8
[32;1m[Board] [0m  -------------------
[32;1m[Board] [0m7 || |[7;1m [0m| |[7;1m [0m| |[30;1mp[0m|[30;1mp[0m|[30;1mp[0m|| 7
[32;1m[Board] [0m  -------------------
[32;1m[Board] [0m6 ||[7;1m [0m|[30;1mp[0m|[7;1m [0m|[30;1mp[0m|[7;1m [0m| |[7;1m [0m| || 6
[32;1m[Board] [0m  -------------------
[32;1m[Board] [0m5 || |[7;1m [0m|[30;1mp[0m|[7;1m [0m|[30;1mp[0m|[7;1m [0m| |[7;1m [0m|| 5
[32;1m[Board] [0m  -------------------
[32;1m[Board] [0m4 ||[7;1m [0m| |[7;1m [0m| |[7;1m [0m|[30;1mQ[0m|[0;1mp[0m| || 4
[32;1m[Board] [0m  -------------------
[32;1m[Board] [0m3 || |[7;1m [0m| |[0;1mp[0m|[0;1mK[0m|[7;1m [0m| |[0;1mp[0m|| 3
[32;1m[Board] [0m  -------------------
[32;1m[Board] [0m2 ||[0;1mp[0m| |[0;1mp[0m| |[0;1mp[0m|[0;1mp[0m|[7;1m [0m| || 2
[32;1m[Board] [0m  -------------------
[32;1m[Board] [0m1 ||[0;1mr[0m|[0;1mk[0m| |[7;1m [0m| |[0;1mb[0m|[0;1mk[0m|[0;1mr[0m|| 1
[32;1m[Board] [0m  -------------------
[32;1m[Board] [0m    a b c d e f g h
[32;1m[Board] [0m
[32;1m[Referee] [0mThis is the turn of the White player...
[32;1m[Board] [0m[33;1m[WARNING][0m [5;1mWhite King in checkmate![0m
[32;1m[Board] [0m[33;1m[WARNING][0m The Black player wins!
