[32;1m[Board] [0mInitializing board...
[32;1m[Board] [0m
[32;1m[Board] [0m    a b c d e f g h 
[32;1m[Board] [0m  -------------------
[32;1m[Board] [0m8 ||[30;1mr[0m|[30;1mk[0m|[30;1mb[0m|[30;1mQ[0m|[30;1mK[0m|[30;1mb[0m|[30;1mk[0m|[30;1mr[0m|| 8
[32;1m[Board] [0m  -------------------
[32;1m[Board] [0m7 ||[30;1mp[0m|[30;1mp[0m|[30;1mp[0m|[30;1mp[0m|[30;1mp[0m|[30;1mp[0m|[30;1mp[0m|[30;1mp[0m|| 7
[32;1m[Board] [0m  -------------------
[32;1m[Board] [0m6 ||[7;1m [0m| |[7;1m [0m| |[7;1m [0m| |[7;1m [0m| || 6
[32;1m[Board] [0m  -------------------
[32;1m[Board] [0m5 || |[7;1m [0m| |[7;1m [0m| |[7;1m [0m| |[7;1m [0m|| 5
[32;1m[Board] [0m  -------------------
[32;1m[Board] [0m4 ||[7;1m [0m| |[7;1m [0m| |[7;1m [0m| |[7;1m [0m| || 4
[32;1m[Board] [0m  -------------------
[32;1m[Board] [0m3 || |[7;1m [0m| |[7;1m [0m| |[7;1m [0m| |[7;1m [0m|| 3
[32;1m[Board] [0m  -------------------
[32;1m[Board] [0m2 ||[0;1mp[0m|[0;1mp[0m|[0;1mp[0m|[0;1mp[0m|[0;1mp[0m|[0;1mp[0m|[0;1mp[0m|[0;1mp[0m|| 2
[32;1m[Board] [0m  -------------------
[32;1m[Board] [0m1 ||[0;1mr[0m|[0;1mk[0m|[0;1mb[0m|[0;1mQ[0m|[0;1mK[0m|[0;1mb[0m|[0;1mk[0m|[0;1mr[0m|| 1
[32;1m[Board] [0m  -------------------
[32;1m[Board] [0m    a b c d e f g h
[32;1m[Board] [0m
[32;1m[Referee] [0mThis is the turn of the White player...
Input file: championship/lizzie-iii-blueherring/history.csv
Output file: championship/lizzie-iii-blueherring/move.csv
We are playing as White
Move history:
8 | R N B Q K B N R 
7 | P P P P P P P P 
6 | _ _ _ _ _ _ _ _ 
5 | _ _ _ _ _ _ _ _ 
4 | _ _ _ _ _ _ _ _ 
3 | _ _ _ _ _ _ _ _ 
2 | P P P P P P P P 
1 | R N B Q K B N R 
-------------------
  | A B C D E F G H 

It is white's turn to play.
AI's move: c2c3
Move written: c2c3
[32;1m[Game] [0mPlayer's error code: 0
[32;1m[Game] [0mChecking move validity...
[32;1m[Board] [0mInitializing board...
[32;1m[Board] [0mLoading history file `championship/lizzie-iii-blueherring/history.csv`...
[32;1m[Board] [0mLoaded 0 move(s).
[32;1m[Board] [0mLoading move file `championship/lizzie-iii-blueherring/move.csv`...
[32;1m[Board] [0mWhite player is playing c2 to c3.
[32;1m[Board] [0m
[32;1m[Board] [0m    a b c d e f g h 
[32;1m[Board] [0m  -------------------
[32;1m[Board] [0m8 ||[30;1mr[0m|[30;1mk[0m|[30;1mb[0m|[30;1mQ[0m|[30;1mK[0m|[30;1mb[0m|[30;1mk[0m|[30;1mr[0m|| 8
[32;1m[Board] [0m  -------------------
[32;1m[Board] [0m7 ||[30;1mp[0m|[30;1mp[0m|[30;1mp[0m|[30;1mp[0m|[30;1mp[0m|[30;1mp[0m|[30;1mp[0m|[30;1mp[0m|| 7
[32;1m[Board] [0m  -------------------
[32;1m[Board] [0m6 ||[7;1m [0m| |[7;1m [0m| |[7;1m [0m| |[7;1m [0m| || 6
[32;1m[Board] [0m  -------------------
[32;1m[Board] [0m5 || |[7;1m [0m| |[7;1m [0m| |[7;1m [0m| |[7;1m [0m|| 5
[32;1m[Board] [0m  -------------------
[32;1m[Board] [0m4 ||[7;1m [0m| |[7;1m [0m| |[7;1m [0m| |[7;1m [0m| || 4
[32;1m[Board] [0m  -------------------
[32;1m[Board] [0m3 || |[7;1m [0m|[0;1mp[0m|[7;1m [0m| |[7;1m [0m| |[7;1m [0m|| 3
[32;1m[Board] [0m  -------------------
[32;1m[Board] [0m2 ||[0;1mp[0m|[0;1mp[0m|[7;1m [0m|[0;1mp[0m|[0;1mp[0m|[0;1mp[0m|[0;1mp[0m|[0;1mp[0m|| 2
[32;1m[Board] [0m  -------------------
[32;1m[Board] [0m1 ||[0;1mr[0m|[0;1mk[0m|[0;1mb[0m|[0;1mQ[0m|[0;1mK[0m|[0;1mb[0m|[0;1mk[0m|[0;1mr[0m|| 1
[32;1m[Board] [0m  -------------------
[32;1m[Board] [0m    a b c d e f g h
[32;1m[Board] [0m
[32;1m[Referee] [0mThis is the turn of the Black player...
[32;1m[Game] [0mPlayer's error code: 0
[32;1m[Game] [0mChecking move validity...
[32;1m[Board] [0mInitializing board...
[32;1m[Board] [0mLoading history file `championship/lizzie-iii-blueherring/history.csv`...
[32;1m[Board] [0mLoaded 1 move(s).
[32;1m[Board] [0mLoading move file `championship/lizzie-iii-blueherring/move.csv`...
[32;1m[Board] [0mBlack player is playing b8 to c6.
[32;1m[Board] [0m
[32;1m[Board] [0m    a b c d e f g h 
[32;1m[Board] [0m  -------------------
[32;1m[Board] [0m8 ||[30;1mr[0m| |[30;1mb[0m|[30;1mQ[0m|[30;1mK[0m|[30;1mb[0m|[30;1mk[0m|[30;1mr[0m|| 8
[32;1m[Board] [0m  -------------------
[32;1m[Board] [0m7 ||[30;1mp[0m|[30;1mp[0m|[30;1mp[0m|[30;1mp[0m|[30;1mp[0m|[30;1mp[0m|[30;1mp[0m|[30;1mp[0m|| 7
[32;1m[Board] [0m  -------------------
[32;1m[Board] [0m6 ||[7;1m [0m| |[30;1mk[0m| |[7;1m [0m| |[7;1m [0m| || 6
[32;1m[Board] [0m  -------------------
[32;1m[Board] [0m5 || |[7;1m [0m| |[7;1m [0m| |[7;1m [0m| |[7;1m [0m|| 5
[32;1m[Board] [0m  -------------------
[32;1m[Board] [0m4 ||[7;1m [0m| |[7;1m [0m| |[7;1m [0m| |[7;1m [0m| || 4
[32;1m[Board] [0m  -------------------
[32;1m[Board] [0m3 || |[7;1m [0m|[0;1mp[0m|[7;1m [0m| |[7;1m [0m| |[7;1m [0m|| 3
[32;1m[Board] [0m  -------------------
[32;1m[Board] [0m2 ||[0;1mp[0m|[0;1mp[0m|[7;1m [0m|[0;1mp[0m|[0;1mp[0m|[0;1mp[0m|[0;1mp[0m|[0;1mp[0m|| 2
[32;1m[Board] [0m  -------------------
[32;1m[Board] [0m1 ||[0;1mr[0m|[0;1mk[0m|[0;1mb[0m|[0;1mQ[0m|[0;1mK[0m|[0;1mb[0m|[0;1mk[0m|[0;1mr[0m|| 1
[32;1m[Board] [0m  -------------------
[32;1m[Board] [0m    a b c d e f g h
[32;1m[Board] [0m
[32;1m[Referee] [0mThis is the turn of the White player...
Input file: championship/lizzie-iii-blueherring/history.csv
Output file: championship/lizzie-iii-blueherring/move.csv
Turn of: white
Succesful move
c2c3
8 | R N B Q K B N R 
7 | P P P P P P P P 
6 | _ _ _ _ _ _ _ _ 
5 | _ _ _ _ _ _ _ _ 
4 | _ _ _ _ _ _ _ _ 
3 | _ _ P _ _ _ _ _ 
2 | P P _ P P P P P 
1 | R N B Q K B N R 
-------------------
  | A B C D E F G H 

Turn of: black
Succesful move
b8c6
8 | R _ B Q K B N R 
7 | P P P P P P P P 
6 | _ _ N _ _ _ _ _ 
5 | _ _ _ _ _ _ _ _ 
4 | _ _ _ _ _ _ _ _ 
3 | _ _ P _ _ _ _ _ 
2 | P P _ P P P P P 
1 | R N B Q K B N R 
-------------------
  | A B C D E F G H 

We are playing as White
Move history:
c2c3
b8c6
8 | R _ B Q K B N R 
7 | P P P P P P P P 
6 | _ _ N _ _ _ _ _ 
5 | _ _ _ _ _ _ _ _ 
4 | _ _ _ _ _ _ _ _ 
3 | _ _ P _ _ _ _ _ 
2 | P P _ P P P P P 
1 | R N B Q K B N R 
-------------------
  | A B C D E F G H 

It is white's turn to play.
AI's move: c3c4
Move written: c3c4
[32;1m[Game] [0mPlayer's error code: 0
[32;1m[Game] [0mChecking move validity...
[32;1m[Board] [0mInitializing board...
[32;1m[Board] [0mLoading history file `championship/lizzie-iii-blueherring/history.csv`...
[32;1m[Board] [0mLoaded 2 move(s).
[32;1m[Board] [0mLoading move file `championship/lizzie-iii-blueherring/move.csv`...
[32;1m[Board] [0mWhite player is playing c3 to c4.
[32;1m[Board] [0m
[32;1m[Board] [0m    a b c d e f g h 
[32;1m[Board] [0m  -------------------
[32;1m[Board] [0m8 ||[30;1mr[0m| |[30;1mb[0m|[30;1mQ[0m|[30;1mK[0m|[30;1mb[0m|[30;1mk[0m|[30;1mr[0m|| 8
[32;1m[Board] [0m  -------------------
[32;1m[Board] [0m7 ||[30;1mp[0m|[30;1mp[0m|[30;1mp[0m|[30;1mp[0m|[30;1mp[0m|[30;1mp[0m|[30;1mp[0m|[30;1mp[0m|| 7
[32;1m[Board] [0m  -------------------
[32;1m[Board] [0m6 ||[7;1m [0m| |[30;1mk[0m| |[7;1m [0m| |[7;1m [0m| || 6
[32;1m[Board] [0m  -------------------
[32;1m[Board] [0m5 || |[7;1m [0m| |[7;1m [0m| |[7;1m [0m| |[7;1m [0m|| 5
[32;1m[Board] [0m  -------------------
[32;1m[Board] [0m4 ||[7;1m [0m| |[0;1mp[0m| |[7;1m [0m| |[7;1m [0m| || 4
[32;1m[Board] [0m  -------------------
[32;1m[Board] [0m3 || |[7;1m [0m| |[7;1m [0m| |[7;1m [0m| |[7;1m [0m|| 3
[32;1m[Board] [0m  -------------------
[32;1m[Board] [0m2 ||[0;1mp[0m|[0;1mp[0m|[7;1m [0m|[0;1mp[0m|[0;1mp[0m|[0;1mp[0m|[0;1mp[0m|[0;1mp[0m|| 2
[32;1m[Board] [0m  -------------------
[32;1m[Board] [0m1 ||[0;1mr[0m|[0;1mk[0m|[0;1mb[0m|[0;1mQ[0m|[0;1mK[0m|[0;1mb[0m|[0;1mk[0m|[0;1mr[0m|| 1
[32;1m[Board] [0m  -------------------
[32;1m[Board] [0m    a b c d e f g h
[32;1m[Board] [0m
[32;1m[Referee] [0mThis is the turn of the Black player...
[32;1m[Game] [0mPlayer's error code: 0
[32;1m[Game] [0mChecking move validity...
[32;1m[Board] [0mInitializing board...
[32;1m[Board] [0mLoading history file `championship/lizzie-iii-blueherring/history.csv`...
[32;1m[Board] [0mLoaded 3 move(s).
[32;1m[Board] [0mLoading move file `championship/lizzie-iii-blueherring/move.csv`...
[32;1m[Board] [0mBlack player is playing c6 to d4.
[32;1m[Board] [0m
[32;1m[Board] [0m    a b c d e f g h 
[32;1m[Board] [0m  -------------------
[32;1m[Board] [0m8 ||[30;1mr[0m| |[30;1mb[0m|[30;1mQ[0m|[30;1mK[0m|[30;1mb[0m|[30;1mk[0m|[30;1mr[0m|| 8
[32;1m[Board] [0m  -------------------
[32;1m[Board] [0m7 ||[30;1mp[0m|[30;1mp[0m|[30;1mp[0m|[30;1mp[0m|[30;1mp[0m|[30;1mp[0m|[30;1mp[0m|[30;1mp[0m|| 7
[32;1m[Board] [0m  -------------------
[32;1m[Board] [0m6 ||[7;1m [0m| |[7;1m [0m| |[7;1m [0m| |[7;1m [0m| || 6
[32;1m[Board] [0m  -------------------
[32;1m[Board] [0m5 || |[7;1m [0m| |[7;1m [0m| |[7;1m [0m| |[7;1m [0m|| 5
[32;1m[Board] [0m  -------------------
[32;1m[Board] [0m4 ||[7;1m [0m| |[0;1mp[0m|[30;1mk[0m|[7;1m [0m| |[7;1m [0m| || 4
[32;1m[Board] [0m  -------------------
[32;1m[Board] [0m3 || |[7;1m [0m| |[7;1m [0m| |[7;1m [0m| |[7;1m [0m|| 3
[32;1m[Board] [0m  -------------------
[32;1m[Board] [0m2 ||[0;1mp[0m|[0;1mp[0m|[7;1m [0m|[0;1mp[0m|[0;1mp[0m|[0;1mp[0m|[0;1mp[0m|[0;1mp[0m|| 2
[32;1m[Board] [0m  -------------------
[32;1m[Board] [0m1 ||[0;1mr[0m|[0;1mk[0m|[0;1mb[0m|[0;1mQ[0m|[0;1mK[0m|[0;1mb[0m|[0;1mk[0m|[0;1mr[0m|| 1
[32;1m[Board] [0m  -------------------
[32;1m[Board] [0m    a b c d e f g h
[32;1m[Board] [0m
[32;1m[Referee] [0mThis is the turn of the White player...
Input file: championship/lizzie-iii-blueherring/history.csv
Output file: championship/lizzie-iii-blueherring/move.csv
Turn of: white
Succesful move
c2c3
8 | R N B Q K B N R 
7 | P P P P P P P P 
6 | _ _ _ _ _ _ _ _ 
5 | _ _ _ _ _ _ _ _ 
4 | _ _ _ _ _ _ _ _ 
3 | _ _ P _ _ _ _ _ 
2 | P P _ P P P P P 
1 | R N B Q K B N R 
-------------------
  | A B C D E F G H 

Turn of: black
Succesful move
b8c6
8 | R _ B Q K B N R 
7 | P P P P P P P P 
6 | _ _ N _ _ _ _ _ 
5 | _ _ _ _ _ _ _ _ 
4 | _ _ _ _ _ _ _ _ 
3 | _ _ P _ _ _ _ _ 
2 | P P _ P P P P P 
1 | R N B Q K B N R 
-------------------
  | A B C D E F G H 

Turn of: white
Succesful move
c3c4
8 | R _ B Q K B N R 
7 | P P P P P P P P 
6 | _ _ N _ _ _ _ _ 
5 | _ _ _ _ _ _ _ _ 
4 | _ _ P _ _ _ _ _ 
3 | _ _ _ _ _ _ _ _ 
2 | P P _ P P P P P 
1 | R N B Q K B N R 
-------------------
  | A B C D E F G H 

Turn of: black
Succesful move
c6d4
8 | R _ B Q K B N R 
7 | P P P P P P P P 
6 | _ _ _ _ _ _ _ _ 
5 | _ _ _ _ _ _ _ _ 
4 | _ _ P N _ _ _ _ 
3 | _ _ _ _ _ _ _ _ 
2 | P P _ P P P P P 
1 | R N B Q K B N R 
-------------------
  | A B C D E F G H 

We are playing as White
Move history:
c2c3
b8c6
c3c4
c6d4
8 | R _ B Q K B N R 
7 | P P P P P P P P 
6 | _ _ _ _ _ _ _ _ 
5 | _ _ _ _ _ _ _ _ 
4 | _ _ P N _ _ _ _ 
3 | _ _ _ _ _ _ _ _ 
2 | P P _ P P P P P 
1 | R N B Q K B N R 
-------------------
  | A B C D E F G H 

It is white's turn to play.
AI's move: e2e3
Move written: e2e3
[32;1m[Game] [0mPlayer's error code: 0
[32;1m[Game] [0mChecking move validity...
[32;1m[Board] [0mInitializing board...
[32;1m[Board] [0mLoading history file `championship/lizzie-iii-blueherring/history.csv`...
[32;1m[Board] [0mLoaded 4 move(s).
[32;1m[Board] [0mLoading move file `championship/lizzie-iii-blueherring/move.csv`...
[32;1m[Board] [0mWhite player is playing e2 to e3.
[32;1m[Board] [0m
[32;1m[Board] [0m    a b c d e f g h 
[32;1m[Board] [0m  -------------------
[32;1m[Board] [0m8 ||[30;1mr[0m| |[30;1mb[0m|[30;1mQ[0m|[30;1mK[0m|[30;1mb[0m|[30;1mk[0m|[30;1mr[0m|| 8
[32;1m[Board] [0m  -------------------
[32;1m[Board] [0m7 ||[30;1mp[0m|[30;1mp[0m|[30;1mp[0m|[30;1mp[0m|[30;1mp[0m|[30;1mp[0m|[30;1mp[0m|[30;1mp[0m|| 7
[32;1m[Board] [0m  -------------------
[32;1m[Board] [0m6 ||[7;1m [0m| |[7;1m [0m| |[7;1m [0m| |[7;1m [0m| || 6
[32;1m[Board] [0m  -------------------
[32;1m[Board] [0m5 || |[7;1m [0m| |[7;1m [0m| |[7;1m [0m| |[7;1m [0m|| 5
[32;1m[Board] [0m  -------------------
[32;1m[Board] [0m4 ||[7;1m [0m| |[0;1mp[0m|[30;1mk[0m|[7;1m [0m| |[7;1m [0m| || 4
[32;1m[Board] [0m  -------------------
[32;1m[Board] [0m3 || |[7;1m [0m| |[7;1m [0m|[0;1mp[0m|[7;1m [0m| |[7;1m [0m|| 3
[32;1m[Board] [0m  -------------------
[32;1m[Board] [0m2 ||[0;1mp[0m|[0;1mp[0m|[7;1m [0m|[0;1mp[0m|[7;1m [0m|[0;1mp[0m|[0;1mp[0m|[0;1mp[0m|| 2
[32;1m[Board] [0m  -------------------
[32;1m[Board] [0m1 ||[0;1mr[0m|[0;1mk[0m|[0;1mb[0m|[0;1mQ[0m|[0;1mK[0m|[0;1mb[0m|[0;1mk[0m|[0;1mr[0m|| 1
[32;1m[Board] [0m  -------------------
[32;1m[Board] [0m    a b c d e f g h
[32;1m[Board] [0m
[32;1m[Referee] [0mThis is the turn of the Black player...
[32;1m[Game] [0mPlayer's error code: 0
[32;1m[Game] [0mChecking move validity...
[32;1m[Board] [0mInitializing board...
[32;1m[Board] [0mLoading history file `championship/lizzie-iii-blueherring/history.csv`...
[32;1m[Board] [0mLoaded 5 move(s).
[32;1m[Board] [0mLoading move file `championship/lizzie-iii-blueherring/move.csv`...
[32;1m[Board] [0mBlack player is playing d4 to f5.
[32;1m[Board] [0m
[32;1m[Board] [0m    a b c d e f g h 
[32;1m[Board] [0m  -------------------
[32;1m[Board] [0m8 ||[30;1mr[0m| |[30;1mb[0m|[30;1mQ[0m|[30;1mK[0m|[30;1mb[0m|[30;1mk[0m|[30;1mr[0m|| 8
[32;1m[Board] [0m  -------------------
[32;1m[Board] [0m7 ||[30;1mp[0m|[30;1mp[0m|[30;1mp[0m|[30;1mp[0m|[30;1mp[0m|[30;1mp[0m|[30;1mp[0m|[30;1mp[0m|| 7
[32;1m[Board] [0m  -------------------
[32;1m[Board] [0m6 ||[7;1m [0m| |[7;1m [0m| |[7;1m [0m| |[7;1m [0m| || 6
[32;1m[Board] [0m  -------------------
[32;1m[Board] [0m5 || |[7;1m [0m| |[7;1m [0m| |[30;1mk[0m| |[7;1m [0m|| 5
[32;1m[Board] [0m  -------------------
[32;1m[Board] [0m4 ||[7;1m [0m| |[0;1mp[0m| |[7;1m [0m| |[7;1m [0m| || 4
[32;1m[Board] [0m  -------------------
[32;1m[Board] [0m3 || |[7;1m [0m| |[7;1m [0m|[0;1mp[0m|[7;1m [0m| |[7;1m [0m|| 3
[32;1m[Board] [0m  -------------------
[32;1m[Board] [0m2 ||[0;1mp[0m|[0;1mp[0m|[7;1m [0m|[0;1mp[0m|[7;1m [0m|[0;1mp[0m|[0;1mp[0m|[0;1mp[0m|| 2
[32;1m[Board] [0m  -------------------
[32;1m[Board] [0m1 ||[0;1mr[0m|[0;1mk[0m|[0;1mb[0m|[0;1mQ[0m|[0;1mK[0m|[0;1mb[0m|[0;1mk[0m|[0;1mr[0m|| 1
[32;1m[Board] [0m  -------------------
[32;1m[Board] [0m    a b c d e f g h
[32;1m[Board] [0m
[32;1m[Referee] [0mThis is the turn of the White player...
Input file: championship/lizzie-iii-blueherring/history.csv
Output file: championship/lizzie-iii-blueherring/move.csv
Turn of: white
Succesful move
c2c3
8 | R N B Q K B N R 
7 | P P P P P P P P 
6 | _ _ _ _ _ _ _ _ 
5 | _ _ _ _ _ _ _ _ 
4 | _ _ _ _ _ _ _ _ 
3 | _ _ P _ _ _ _ _ 
2 | P P _ P P P P P 
1 | R N B Q K B N R 
-------------------
  | A B C D E F G H 

Turn of: black
Succesful move
b8c6
8 | R _ B Q K B N R 
7 | P P P P P P P P 
6 | _ _ N _ _ _ _ _ 
5 | _ _ _ _ _ _ _ _ 
4 | _ _ _ _ _ _ _ _ 
3 | _ _ P _ _ _ _ _ 
2 | P P _ P P P P P 
1 | R N B Q K B N R 
-------------------
  | A B C D E F G H 

Turn of: white
Succesful move
c3c4
8 | R _ B Q K B N R 
7 | P P P P P P P P 
6 | _ _ N _ _ _ _ _ 
5 | _ _ _ _ _ _ _ _ 
4 | _ _ P _ _ _ _ _ 
3 | _ _ _ _ _ _ _ _ 
2 | P P _ P P P P P 
1 | R N B Q K B N R 
-------------------
  | A B C D E F G H 

Turn of: black
Succesful move
c6d4
8 | R _ B Q K B N R 
7 | P P P P P P P P 
6 | _ _ _ _ _ _ _ _ 
5 | _ _ _ _ _ _ _ _ 
4 | _ _ P N _ _ _ _ 
3 | _ _ _ _ _ _ _ _ 
2 | P P _ P P P P P 
1 | R N B Q K B N R 
-------------------
  | A B C D E F G H 

Turn of: white
Succesful move
e2e3
8 | R _ B Q K B N R 
7 | P P P P P P P P 
6 | _ _ _ _ _ _ _ _ 
5 | _ _ _ _ _ _ _ _ 
4 | _ _ P N _ _ _ _ 
3 | _ _ _ _ P _ _ _ 
2 | P P _ P _ P P P 
1 | R N B Q K B N R 
-------------------
  | A B C D E F G H 

Turn of: black
Succesful move
d4f5
8 | R _ B Q K B N R 
7 | P P P P P P P P 
6 | _ _ _ _ _ _ _ _ 
5 | _ _ _ _ _ N _ _ 
4 | _ _ P _ _ _ _ _ 
3 | _ _ _ _ P _ _ _ 
2 | P P _ P _ P P P 
1 | R N B Q K B N R 
-------------------
  | A B C D E F G H 

We are playing as White
Move history:
c2c3
b8c6
c3c4
c6d4
e2e3
d4f5
8 | R _ B Q K B N R 
7 | P P P P P P P P 
6 | _ _ _ _ _ _ _ _ 
5 | _ _ _ _ _ N _ _ 
4 | _ _ P _ _ _ _ _ 
3 | _ _ _ _ P _ _ _ 
2 | P P _ P _ P P P 
1 | R N B Q K B N R 
-------------------
  | A B C D E F G H 

It is white's turn to play.
AI's move: d1a4
Move written: d1a4
[32;1m[Game] [0mPlayer's error code: 0
[32;1m[Game] [0mChecking move validity...
[32;1m[Board] [0mInitializing board...
[32;1m[Board] [0mLoading history file `championship/lizzie-iii-blueherring/history.csv`...
[32;1m[Board] [0mLoaded 6 move(s).
[32;1m[Board] [0mLoading move file `championship/lizzie-iii-blueherring/move.csv`...
[32;1m[Board] [0mWhite player is playing d1 to a4.
[32;1m[Board] [0m
[32;1m[Board] [0m    a b c d e f g h 
[32;1m[Board] [0m  -------------------
[32;1m[Board] [0m8 ||[30;1mr[0m| |[30;1mb[0m|[30;1mQ[0m|[30;1mK[0m|[30;1mb[0m|[30;1mk[0m|[30;1mr[0m|| 8
[32;1m[Board] [0m  -------------------
[32;1m[Board] [0m7 ||[30;1mp[0m|[30;1mp[0m|[30;1mp[0m|[30;1mp[0m|[30;1mp[0m|[30;1mp[0m|[30;1mp[0m|[30;1mp[0m|| 7
[32;1m[Board] [0m  -------------------
[32;1m[Board] [0m6 ||[7;1m [0m| |[7;1m [0m| |[7;1m [0m| |[7;1m [0m| || 6
[32;1m[Board] [0m  -------------------
[32;1m[Board] [0m5 || |[7;1m [0m| |[7;1m [0m| |[30;1mk[0m| |[7;1m [0m|| 5
[32;1m[Board] [0m  -------------------
[32;1m[Board] [0m4 ||[0;1mQ[0m| |[0;1mp[0m| |[7;1m [0m| |[7;1m [0m| || 4
[32;1m[Board] [0m  -------------------
[32;1m[Board] [0m3 || |[7;1m [0m| |[7;1m [0m|[0;1mp[0m|[7;1m [0m| |[7;1m [0m|| 3
[32;1m[Board] [0m  -------------------
[32;1m[Board] [0m2 ||[0;1mp[0m|[0;1mp[0m|[7;1m [0m|[0;1mp[0m|[7;1m [0m|[0;1mp[0m|[0;1mp[0m|[0;1mp[0m|| 2
[32;1m[Board] [0m  -------------------
[32;1m[Board] [0m1 ||[0;1mr[0m|[0;1mk[0m|[0;1mb[0m|[7;1m [0m|[0;1mK[0m|[0;1mb[0m|[0;1mk[0m|[0;1mr[0m|| 1
[32;1m[Board] [0m  -------------------
[32;1m[Board] [0m    a b c d e f g h
[32;1m[Board] [0m
[32;1m[Referee] [0mThis is the turn of the Black player...
[32;1m[Game] [0mPlayer's error code: 0
[32;1m[Game] [0mChecking move validity...
[32;1m[Board] [0mInitializing board...
[32;1m[Board] [0mLoading history file `championship/lizzie-iii-blueherring/history.csv`...
[32;1m[Board] [0mLoaded 7 move(s).
[32;1m[Board] [0mLoading move file `championship/lizzie-iii-blueherring/move.csv`...
[32;1m[Board] [0mBlack player is playing g8 to f6.
[32;1m[Board] [0m
[32;1m[Board] [0m    a b c d e f g h 
[32;1m[Board] [0m  -------------------
[32;1m[Board] [0m8 ||[30;1mr[0m| |[30;1mb[0m|[30;1mQ[0m|[30;1mK[0m|[30;1mb[0m|[7;1m [0m|[30;1mr[0m|| 8
[32;1m[Board] [0m  -------------------
[32;1m[Board] [0m7 ||[30;1mp[0m|[30;1mp[0m|[30;1mp[0m|[30;1mp[0m|[30;1mp[0m|[30;1mp[0m|[30;1mp[0m|[30;1mp[0m|| 7
[32;1m[Board] [0m  -------------------
[32;1m[Board] [0m6 ||[7;1m [0m| |[7;1m [0m| |[7;1m [0m|[30;1mk[0m|[7;1m [0m| || 6
[32;1m[Board] [0m  -------------------
[32;1m[Board] [0m5 || |[7;1m [0m| |[7;1m [0m| |[30;1mk[0m| |[7;1m [0m|| 5
[32;1m[Board] [0m  -------------------
[32;1m[Board] [0m4 ||[0;1mQ[0m| |[0;1mp[0m| |[7;1m [0m| |[7;1m [0m| || 4
[32;1m[Board] [0m  -------------------
[32;1m[Board] [0m3 || |[7;1m [0m| |[7;1m [0m|[0;1mp[0m|[7;1m [0m| |[7;1m [0m|| 3
[32;1m[Board] [0m  -------------------
[32;1m[Board] [0m2 ||[0;1mp[0m|[0;1mp[0m|[7;1m [0m|[0;1mp[0m|[7;1m [0m|[0;1mp[0m|[0;1mp[0m|[0;1mp[0m|| 2
[32;1m[Board] [0m  -------------------
[32;1m[Board] [0m1 ||[0;1mr[0m|[0;1mk[0m|[0;1mb[0m|[7;1m [0m|[0;1mK[0m|[0;1mb[0m|[0;1mk[0m|[0;1mr[0m|| 1
[32;1m[Board] [0m  -------------------
[32;1m[Board] [0m    a b c d e f g h
[32;1m[Board] [0m
[32;1m[Referee] [0mThis is the turn of the White player...
Input file: championship/lizzie-iii-blueherring/history.csv
Output file: championship/lizzie-iii-blueherring/move.csv
Turn of: white
Succesful move
c2c3
8 | R N B Q K B N R 
7 | P P P P P P P P 
6 | _ _ _ _ _ _ _ _ 
5 | _ _ _ _ _ _ _ _ 
4 | _ _ _ _ _ _ _ _ 
3 | _ _ P _ _ _ _ _ 
2 | P P _ P P P P P 
1 | R N B Q K B N R 
-------------------
  | A B C D E F G H 

Turn of: black
Succesful move
b8c6
8 | R _ B Q K B N R 
7 | P P P P P P P P 
6 | _ _ N _ _ _ _ _ 
5 | _ _ _ _ _ _ _ _ 
4 | _ _ _ _ _ _ _ _ 
3 | _ _ P _ _ _ _ _ 
2 | P P _ P P P P P 
1 | R N B Q K B N R 
-------------------
  | A B C D E F G H 

Turn of: white
Succesful move
c3c4
8 | R _ B Q K B N R 
7 | P P P P P P P P 
6 | _ _ N _ _ _ _ _ 
5 | _ _ _ _ _ _ _ _ 
4 | _ _ P _ _ _ _ _ 
3 | _ _ _ _ _ _ _ _ 
2 | P P _ P P P P P 
1 | R N B Q K B N R 
-------------------
  | A B C D E F G H 

Turn of: black
Succesful move
c6d4
8 | R _ B Q K B N R 
7 | P P P P P P P P 
6 | _ _ _ _ _ _ _ _ 
5 | _ _ _ _ _ _ _ _ 
4 | _ _ P N _ _ _ _ 
3 | _ _ _ _ _ _ _ _ 
2 | P P _ P P P P P 
1 | R N B Q K B N R 
-------------------
  | A B C D E F G H 

Turn of: white
Succesful move
e2e3
8 | R _ B Q K B N R 
7 | P P P P P P P P 
6 | _ _ _ _ _ _ _ _ 
5 | _ _ _ _ _ _ _ _ 
4 | _ _ P N _ _ _ _ 
3 | _ _ _ _ P _ _ _ 
2 | P P _ P _ P P P 
1 | R N B Q K B N R 
-------------------
  | A B C D E F G H 

Turn of: black
Succesful move
d4f5
8 | R _ B Q K B N R 
7 | P P P P P P P P 
6 | _ _ _ _ _ _ _ _ 
5 | _ _ _ _ _ N _ _ 
4 | _ _ P _ _ _ _ _ 
3 | _ _ _ _ P _ _ _ 
2 | P P _ P _ P P P 
1 | R N B Q K B N R 
-------------------
  | A B C D E F G H 

Turn of: white
Succesful move
d1a4
8 | R _ B Q K B N R 
7 | P P P P P P P P 
6 | _ _ _ _ _ _ _ _ 
5 | _ _ _ _ _ N _ _ 
4 | Q _ P _ _ _ _ _ 
3 | _ _ _ _ P _ _ _ 
2 | P P _ P _ P P P 
1 | R N B _ K B N R 
-------------------
  | A B C D E F G H 

Turn of: black
Succesful move
g8f6
8 | R _ B Q K B _ R 
7 | P P P P P P P P 
6 | _ _ _ _ _ N _ _ 
5 | _ _ _ _ _ N _ _ 
4 | Q _ P _ _ _ _ _ 
3 | _ _ _ _ P _ _ _ 
2 | P P _ P _ P P P 
1 | R N B _ K B N R 
-------------------
  | A B C D E F G H 

We are playing as White
Move history:
c2c3
b8c6
c3c4
c6d4
e2e3
d4f5
d1a4
g8f6
8 | R _ B Q K B _ R 
7 | P P P P P P P P 
6 | _ _ _ _ _ N _ _ 
5 | _ _ _ _ _ N _ _ 
4 | Q _ P _ _ _ _ _ 
3 | _ _ _ _ P _ _ _ 
2 | P P _ P _ P P P 
1 | R N B _ K B N R 
-------------------
  | A B C D E F G H 

It is white's turn to play.
AI's move: a2a3
Move written: a2a3
[32;1m[Game] [0mPlayer's error code: 0
[32;1m[Game] [0mChecking move validity...
[32;1m[Board] [0mInitializing board...
[32;1m[Board] [0mLoading history file `championship/lizzie-iii-blueherring/history.csv`...
[32;1m[Board] [0mLoaded 8 move(s).
[32;1m[Board] [0mLoading move file `championship/lizzie-iii-blueherring/move.csv`...
[32;1m[Board] [0mWhite player is playing a2 to a3.
[32;1m[Board] [0m
[32;1m[Board] [0m    a b c d e f g h 
[32;1m[Board] [0m  -------------------
[32;1m[Board] [0m8 ||[30;1mr[0m| |[30;1mb[0m|[30;1mQ[0m|[30;1mK[0m|[30;1mb[0m|[7;1m [0m|[30;1mr[0m|| 8
[32;1m[Board] [0m  -------------------
[32;1m[Board] [0m7 ||[30;1mp[0m|[30;1mp[0m|[30;1mp[0m|[30;1mp[0m|[30;1mp[0m|[30;1mp[0m|[30;1mp[0m|[30;1mp[0m|| 7
[32;1m[Board] [0m  -------------------
[32;1m[Board] [0m6 ||[7;1m [0m| |[7;1m [0m| |[7;1m [0m|[30;1mk[0m|[7;1m [0m| || 6
[32;1m[Board] [0m  -------------------
[32;1m[Board] [0m5 || |[7;1m [0m| |[7;1m [0m| |[30;1mk[0m| |[7;1m [0m|| 5
[32;1m[Board] [0m  -------------------
[32;1m[Board] [0m4 ||[0;1mQ[0m| |[0;1mp[0m| |[7;1m [0m| |[7;1m [0m| || 4
[32;1m[Board] [0m  -------------------
[32;1m[Board] [0m3 ||[0;1mp[0m|[7;1m [0m| |[7;1m [0m|[0;1mp[0m|[7;1m [0m| |[7;1m [0m|| 3
[32;1m[Board] [0m  -------------------
[32;1m[Board] [0m2 ||[7;1m [0m|[0;1mp[0m|[7;1m [0m|[0;1mp[0m|[7;1m [0m|[0;1mp[0m|[0;1mp[0m|[0;1mp[0m|| 2
[32;1m[Board] [0m  -------------------
[32;1m[Board] [0m1 ||[0;1mr[0m|[0;1mk[0m|[0;1mb[0m|[7;1m [0m|[0;1mK[0m|[0;1mb[0m|[0;1mk[0m|[0;1mr[0m|| 1
[32;1m[Board] [0m  -------------------
[32;1m[Board] [0m    a b c d e f g h
[32;1m[Board] [0m
[32;1m[Referee] [0mThis is the turn of the Black player...
[32;1m[Game] [0mPlayer's error code: 0
[32;1m[Game] [0mChecking move validity...
[32;1m[Board] [0mInitializing board...
[32;1m[Board] [0mLoading history file `championship/lizzie-iii-blueherring/history.csv`...
[32;1m[Board] [0mLoaded 9 move(s).
[32;1m[Board] [0mLoading move file `championship/lizzie-iii-blueherring/move.csv`...
[32;1m[Board] [0mBlack player is playing f6 to e4.
[32;1m[Board] [0m
[32;1m[Board] [0m    a b c d e f g h 
[32;1m[Board] [0m  -------------------
[32;1m[Board] [0m8 ||[30;1mr[0m| |[30;1mb[0m|[30;1mQ[0m|[30;1mK[0m|[30;1mb[0m|[7;1m [0m|[30;1mr[0m|| 8
[32;1m[Board] [0m  -------------------
[32;1m[Board] [0m7 ||[30;1mp[0m|[30;1mp[0m|[30;1mp[0m|[30;1mp[0m|[30;1mp[0m|[30;1mp[0m|[30;1mp[0m|[30;1mp[0m|| 7
[32;1m[Board] [0m  -------------------
[32;1m[Board] [0m6 ||[7;1m [0m| |[7;1m [0m| |[7;1m [0m| |[7;1m [0m| || 6
[32;1m[Board] [0m  -------------------
[32;1m[Board] [0m5 || |[7;1m [0m| |[7;1m [0m| |[30;1mk[0m| |[7;1m [0m|| 5
[32;1m[Board] [0m  -------------------
[32;1m[Board] [0m4 ||[0;1mQ[0m| |[0;1mp[0m| |[30;1mk[0m| |[7;1m [0m| || 4
[32;1m[Board] [0m  -------------------
[32;1m[Board] [0m3 ||[0;1mp[0m|[7;1m [0m| |[7;1m [0m|[0;1mp[0m|[7;1m [0m| |[7;1m [0m|| 3
[32;1m[Board] [0m  -------------------
[32;1m[Board] [0m2 ||[7;1m [0m|[0;1mp[0m|[7;1m [0m|[0;1mp[0m|[7;1m [0m|[0;1mp[0m|[0;1mp[0m|[0;1mp[0m|| 2
[32;1m[Board] [0m  -------------------
[32;1m[Board] [0m1 ||[0;1mr[0m|[0;1mk[0m|[0;1mb[0m|[7;1m [0m|[0;1mK[0m|[0;1mb[0m|[0;1mk[0m|[0;1mr[0m|| 1
[32;1m[Board] [0m  -------------------
[32;1m[Board] [0m    a b c d e f g h
[32;1m[Board] [0m
[32;1m[Referee] [0mThis is the turn of the White player...
Input file: championship/lizzie-iii-blueherring/history.csv
Output file: championship/lizzie-iii-blueherring/move.csv
Turn of: white
Succesful move
c2c3
8 | R N B Q K B N R 
7 | P P P P P P P P 
6 | _ _ _ _ _ _ _ _ 
5 | _ _ _ _ _ _ _ _ 
4 | _ _ _ _ _ _ _ _ 
3 | _ _ P _ _ _ _ _ 
2 | P P _ P P P P P 
1 | R N B Q K B N R 
-------------------
  | A B C D E F G H 

Turn of: black
Succesful move
b8c6
8 | R _ B Q K B N R 
7 | P P P P P P P P 
6 | _ _ N _ _ _ _ _ 
5 | _ _ _ _ _ _ _ _ 
4 | _ _ _ _ _ _ _ _ 
3 | _ _ P _ _ _ _ _ 
2 | P P _ P P P P P 
1 | R N B Q K B N R 
-------------------
  | A B C D E F G H 

Turn of: white
Succesful move
c3c4
8 | R _ B Q K B N R 
7 | P P P P P P P P 
6 | _ _ N _ _ _ _ _ 
5 | _ _ _ _ _ _ _ _ 
4 | _ _ P _ _ _ _ _ 
3 | _ _ _ _ _ _ _ _ 
2 | P P _ P P P P P 
1 | R N B Q K B N R 
-------------------
  | A B C D E F G H 

Turn of: black
Succesful move
c6d4
8 | R _ B Q K B N R 
7 | P P P P P P P P 
6 | _ _ _ _ _ _ _ _ 
5 | _ _ _ _ _ _ _ _ 
4 | _ _ P N _ _ _ _ 
3 | _ _ _ _ _ _ _ _ 
2 | P P _ P P P P P 
1 | R N B Q K B N R 
-------------------
  | A B C D E F G H 

Turn of: white
Succesful move
e2e3
8 | R _ B Q K B N R 
7 | P P P P P P P P 
6 | _ _ _ _ _ _ _ _ 
5 | _ _ _ _ _ _ _ _ 
4 | _ _ P N _ _ _ _ 
3 | _ _ _ _ P _ _ _ 
2 | P P _ P _ P P P 
1 | R N B Q K B N R 
-------------------
  | A B C D E F G H 

Turn of: black
Succesful move
d4f5
8 | R _ B Q K B N R 
7 | P P P P P P P P 
6 | _ _ _ _ _ _ _ _ 
5 | _ _ _ _ _ N _ _ 
4 | _ _ P _ _ _ _ _ 
3 | _ _ _ _ P _ _ _ 
2 | P P _ P _ P P P 
1 | R N B Q K B N R 
-------------------
  | A B C D E F G H 

Turn of: white
Succesful move
d1a4
8 | R _ B Q K B N R 
7 | P P P P P P P P 
6 | _ _ _ _ _ _ _ _ 
5 | _ _ _ _ _ N _ _ 
4 | Q _ P _ _ _ _ _ 
3 | _ _ _ _ P _ _ _ 
2 | P P _ P _ P P P 
1 | R N B _ K B N R 
-------------------
  | A B C D E F G H 

Turn of: black
Succesful move
g8f6
8 | R _ B Q K B _ R 
7 | P P P P P P P P 
6 | _ _ _ _ _ N _ _ 
5 | _ _ _ _ _ N _ _ 
4 | Q _ P _ _ _ _ _ 
3 | _ _ _ _ P _ _ _ 
2 | P P _ P _ P P P 
1 | R N B _ K B N R 
-------------------
  | A B C D E F G H 

Turn of: white
Succesful move
a2a3
8 | R _ B Q K B _ R 
7 | P P P P P P P P 
6 | _ _ _ _ _ N _ _ 
5 | _ _ _ _ _ N _ _ 
4 | Q _ P _ _ _ _ _ 
3 | P _ _ _ P _ _ _ 
2 | _ P _ P _ P P P 
1 | R N B _ K B N R 
-------------------
  | A B C D E F G H 

Turn of: black
Succesful move
f6e4
8 | R _ B Q K B _ R 
7 | P P P P P P P P 
6 | _ _ _ _ _ _ _ _ 
5 | _ _ _ _ _ N _ _ 
4 | Q _ P _ N _ _ _ 
3 | P _ _ _ P _ _ _ 
2 | _ P _ P _ P P P 
1 | R N B _ K B N R 
-------------------
  | A B C D E F G H 

We are playing as White
Move history:
c2c3
b8c6
c3c4
c6d4
e2e3
d4f5
d1a4
g8f6
a2a3
f6e4
8 | R _ B Q K B _ R 
7 | P P P P P P P P 
6 | _ _ _ _ _ _ _ _ 
5 | _ _ _ _ _ N _ _ 
4 | Q _ P _ N _ _ _ 
3 | P _ _ _ P _ _ _ 
2 | _ P _ P _ P P P 
1 | R N B _ K B N R 
-------------------
  | A B C D E F G H 

It is white's turn to play.
AI's move: a4b5
Move written: a4b5
[32;1m[Game] [0mPlayer's error code: 0
[32;1m[Game] [0mChecking move validity...
[32;1m[Board] [0mInitializing board...
[32;1m[Board] [0mLoading history file `championship/lizzie-iii-blueherring/history.csv`...
[32;1m[Board] [0mLoaded 10 move(s).
[32;1m[Board] [0mLoading move file `championship/lizzie-iii-blueherring/move.csv`...
[32;1m[Board] [0mWhite player is playing a4 to b5.
[32;1m[Board] [0m
[32;1m[Board] [0m    a b c d e f g h 
[32;1m[Board] [0m  -------------------
[32;1m[Board] [0m8 ||[30;1mr[0m| |[30;1mb[0m|[30;1mQ[0m|[30;1mK[0m|[30;1mb[0m|[7;1m [0m|[30;1mr[0m|| 8
[32;1m[Board] [0m  -------------------
[32;1m[Board] [0m7 ||[30;1mp[0m|[30;1mp[0m|[30;1mp[0m|[30;1mp[0m|[30;1mp[0m|[30;1mp[0m|[30;1mp[0m|[30;1mp[0m|| 7
[32;1m[Board] [0m  -------------------
[32;1m[Board] [0m6 ||[7;1m [0m| |[7;1m [0m| |[7;1m [0m| |[7;1m [0m| || 6
[32;1m[Board] [0m  -------------------
[32;1m[Board] [0m5 || |[0;1mQ[0m| |[7;1m [0m| |[30;1mk[0m| |[7;1m [0m|| 5
[32;1m[Board] [0m  -------------------
[32;1m[Board] [0m4 ||[7;1m [0m| |[0;1mp[0m| |[30;1mk[0m| |[7;1m [0m| || 4
[32;1m[Board] [0m  -------------------
[32;1m[Board] [0m3 ||[0;1mp[0m|[7;1m [0m| |[7;1m [0m|[0;1mp[0m|[7;1m [0m| |[7;1m [0m|| 3
[32;1m[Board] [0m  -------------------
[32;1m[Board] [0m2 ||[7;1m [0m|[0;1mp[0m|[7;1m [0m|[0;1mp[0m|[7;1m [0m|[0;1mp[0m|[0;1mp[0m|[0;1mp[0m|| 2
[32;1m[Board] [0m  -------------------
[32;1m[Board] [0m1 ||[0;1mr[0m|[0;1mk[0m|[0;1mb[0m|[7;1m [0m|[0;1mK[0m|[0;1mb[0m|[0;1mk[0m|[0;1mr[0m|| 1
[32;1m[Board] [0m  -------------------
[32;1m[Board] [0m    a b c d e f g h
[32;1m[Board] [0m
[32;1m[Referee] [0mThis is the turn of the Black player...
[32;1m[Game] [0mPlayer's error code: 0
[32;1m[Game] [0mChecking move validity...
[32;1m[Board] [0mInitializing board...
[32;1m[Board] [0mLoading history file `championship/lizzie-iii-blueherring/history.csv`...
[32;1m[Board] [0mLoaded 11 move(s).
[32;1m[Board] [0mLoading move file `championship/lizzie-iii-blueherring/move.csv`...
[32;1m[Board] [0mBlack player is playing f5 to d6.
[32;1m[Board] [0m
[32;1m[Board] [0m    a b c d e f g h 
[32;1m[Board] [0m  -------------------
[32;1m[Board] [0m8 ||[30;1mr[0m| |[30;1mb[0m|[30;1mQ[0m|[30;1mK[0m|[30;1mb[0m|[7;1m [0m|[30;1mr[0m|| 8
[32;1m[Board] [0m  -------------------
[32;1m[Board] [0m7 ||[30;1mp[0m|[30;1mp[0m|[30;1mp[0m|[30;1mp[0m|[30;1mp[0m|[30;1mp[0m|[30;1mp[0m|[30;1mp[0m|| 7
[32;1m[Board] [0m  -------------------
[32;1m[Board] [0m6 ||[7;1m [0m| |[7;1m [0m|[30;1mk[0m|[7;1m [0m| |[7;1m [0m| || 6
[32;1m[Board] [0m  -------------------
[32;1m[Board] [0m5 || |[0;1mQ[0m| |[7;1m [0m| |[7;1m [0m| |[7;1m [0m|| 5
[32;1m[Board] [0m  -------------------
[32;1m[Board] [0m4 ||[7;1m [0m| |[0;1mp[0m| |[30;1mk[0m| |[7;1m [0m| || 4
[32;1m[Board] [0m  -------------------
[32;1m[Board] [0m3 ||[0;1mp[0m|[7;1m [0m| |[7;1m [0m|[0;1mp[0m|[7;1m [0m| |[7;1m [0m|| 3
[32;1m[Board] [0m  -------------------
[32;1m[Board] [0m2 ||[7;1m [0m|[0;1mp[0m|[7;1m [0m|[0;1mp[0m|[7;1m [0m|[0;1mp[0m|[0;1mp[0m|[0;1mp[0m|| 2
[32;1m[Board] [0m  -------------------
[32;1m[Board] [0m1 ||[0;1mr[0m|[0;1mk[0m|[0;1mb[0m|[7;1m [0m|[0;1mK[0m|[0;1mb[0m|[0;1mk[0m|[0;1mr[0m|| 1
[32;1m[Board] [0m  -------------------
[32;1m[Board] [0m    a b c d e f g h
[32;1m[Board] [0m
[32;1m[Referee] [0mThis is the turn of the White player...
Input file: championship/lizzie-iii-blueherring/history.csv
Output file: championship/lizzie-iii-blueherring/move.csv
Turn of: white
Succesful move
c2c3
8 | R N B Q K B N R 
7 | P P P P P P P P 
6 | _ _ _ _ _ _ _ _ 
5 | _ _ _ _ _ _ _ _ 
4 | _ _ _ _ _ _ _ _ 
3 | _ _ P _ _ _ _ _ 
2 | P P _ P P P P P 
1 | R N B Q K B N R 
-------------------
  | A B C D E F G H 

Turn of: black
Succesful move
b8c6
8 | R _ B Q K B N R 
7 | P P P P P P P P 
6 | _ _ N _ _ _ _ _ 
5 | _ _ _ _ _ _ _ _ 
4 | _ _ _ _ _ _ _ _ 
3 | _ _ P _ _ _ _ _ 
2 | P P _ P P P P P 
1 | R N B Q K B N R 
-------------------
  | A B C D E F G H 

Turn of: white
Succesful move
c3c4
8 | R _ B Q K B N R 
7 | P P P P P P P P 
6 | _ _ N _ _ _ _ _ 
5 | _ _ _ _ _ _ _ _ 
4 | _ _ P _ _ _ _ _ 
3 | _ _ _ _ _ _ _ _ 
2 | P P _ P P P P P 
1 | R N B Q K B N R 
-------------------
  | A B C D E F G H 

Turn of: black
Succesful move
c6d4
8 | R _ B Q K B N R 
7 | P P P P P P P P 
6 | _ _ _ _ _ _ _ _ 
5 | _ _ _ _ _ _ _ _ 
4 | _ _ P N _ _ _ _ 
3 | _ _ _ _ _ _ _ _ 
2 | P P _ P P P P P 
1 | R N B Q K B N R 
-------------------
  | A B C D E F G H 

Turn of: white
Succesful move
e2e3
8 | R _ B Q K B N R 
7 | P P P P P P P P 
6 | _ _ _ _ _ _ _ _ 
5 | _ _ _ _ _ _ _ _ 
4 | _ _ P N _ _ _ _ 
3 | _ _ _ _ P _ _ _ 
2 | P P _ P _ P P P 
1 | R N B Q K B N R 
-------------------
  | A B C D E F G H 

Turn of: black
Succesful move
d4f5
8 | R _ B Q K B N R 
7 | P P P P P P P P 
6 | _ _ _ _ _ _ _ _ 
5 | _ _ _ _ _ N _ _ 
4 | _ _ P _ _ _ _ _ 
3 | _ _ _ _ P _ _ _ 
2 | P P _ P _ P P P 
1 | R N B Q K B N R 
-------------------
  | A B C D E F G H 

Turn of: white
Succesful move
d1a4
8 | R _ B Q K B N R 
7 | P P P P P P P P 
6 | _ _ _ _ _ _ _ _ 
5 | _ _ _ _ _ N _ _ 
4 | Q _ P _ _ _ _ _ 
3 | _ _ _ _ P _ _ _ 
2 | P P _ P _ P P P 
1 | R N B _ K B N R 
-------------------
  | A B C D E F G H 

Turn of: black
Succesful move
g8f6
8 | R _ B Q K B _ R 
7 | P P P P P P P P 
6 | _ _ _ _ _ N _ _ 
5 | _ _ _ _ _ N _ _ 
4 | Q _ P _ _ _ _ _ 
3 | _ _ _ _ P _ _ _ 
2 | P P _ P _ P P P 
1 | R N B _ K B N R 
-------------------
  | A B C D E F G H 

Turn of: white
Succesful move
a2a3
8 | R _ B Q K B _ R 
7 | P P P P P P P P 
6 | _ _ _ _ _ N _ _ 
5 | _ _ _ _ _ N _ _ 
4 | Q _ P _ _ _ _ _ 
3 | P _ _ _ P _ _ _ 
2 | _ P _ P _ P P P 
1 | R N B _ K B N R 
-------------------
  | A B C D E F G H 

Turn of: black
Succesful move
f6e4
8 | R _ B Q K B _ R 
7 | P P P P P P P P 
6 | _ _ _ _ _ _ _ _ 
5 | _ _ _ _ _ N _ _ 
4 | Q _ P _ N _ _ _ 
3 | P _ _ _ P _ _ _ 
2 | _ P _ P _ P P P 
1 | R N B _ K B N R 
-------------------
  | A B C D E F G H 

Turn of: white
Succesful move
a4b5
8 | R _ B Q K B _ R 
7 | P P P P P P P P 
6 | _ _ _ _ _ _ _ _ 
5 | _ Q _ _ _ N _ _ 
4 | _ _ P _ N _ _ _ 
3 | P _ _ _ P _ _ _ 
2 | _ P _ P _ P P P 
1 | R N B _ K B N R 
-------------------
  | A B C D E F G H 

Turn of: black
Succesful move
f5d6
8 | R _ B Q K B _ R 
7 | P P P P P P P P 
6 | _ _ _ N _ _ _ _ 
5 | _ Q _ _ _ _ _ _ 
4 | _ _ P _ N _ _ _ 
3 | P _ _ _ P _ _ _ 
2 | _ P _ P _ P P P 
1 | R N B _ K B N R 
-------------------
  | A B C D E F G H 

We are playing as White
Move history:
c2c3
b8c6
c3c4
c6d4
e2e3
d4f5
d1a4
g8f6
a2a3
f6e4
a4b5
f5d6
8 | R _ B Q K B _ R 
7 | P P P P P P P P 
6 | _ _ _ N _ _ _ _ 
5 | _ Q _ _ _ _ _ _ 
4 | _ _ P _ N _ _ _ 
3 | P _ _ _ P _ _ _ 
2 | _ P _ P _ P P P 
1 | R N B _ K B N R 
-------------------
  | A B C D E F G H 

It is white's turn to play.
AI's move: b5c5
Move written: b5c5
[32;1m[Game] [0mPlayer's error code: 0
[32;1m[Game] [0mChecking move validity...
[32;1m[Board] [0mInitializing board...
[32;1m[Board] [0mLoading history file `championship/lizzie-iii-blueherring/history.csv`...
[32;1m[Board] [0mLoaded 12 move(s).
[32;1m[Board] [0mLoading move file `championship/lizzie-iii-blueherring/move.csv`...
[32;1m[Board] [0mWhite player is playing b5 to c5.
[32;1m[Board] [0m
[32;1m[Board] [0m    a b c d e f g h 
[32;1m[Board] [0m  -------------------
[32;1m[Board] [0m8 ||[30;1mr[0m| |[30;1mb[0m|[30;1mQ[0m|[30;1mK[0m|[30;1mb[0m|[7;1m [0m|[30;1mr[0m|| 8
[32;1m[Board] [0m  -------------------
[32;1m[Board] [0m7 ||[30;1mp[0m|[30;1mp[0m|[30;1mp[0m|[30;1mp[0m|[30;1mp[0m|[30;1mp[0m|[30;1mp[0m|[30;1mp[0m|| 7
[32;1m[Board] [0m  -------------------
[32;1m[Board] [0m6 ||[7;1m [0m| |[7;1m [0m|[30;1mk[0m|[7;1m [0m| |[7;1m [0m| || 6
[32;1m[Board] [0m  -------------------
[32;1m[Board] [0m5 || |[7;1m [0m|[0;1mQ[0m|[7;1m [0m| |[7;1m [0m| |[7;1m [0m|| 5
[32;1m[Board] [0m  -------------------
[32;1m[Board] [0m4 ||[7;1m [0m| |[0;1mp[0m| |[30;1mk[0m| |[7;1m [0m| || 4
[32;1m[Board] [0m  -------------------
[32;1m[Board] [0m3 ||[0;1mp[0m|[7;1m [0m| |[7;1m [0m|[0;1mp[0m|[7;1m [0m| |[7;1m [0m|| 3
[32;1m[Board] [0m  -------------------
[32;1m[Board] [0m2 ||[7;1m [0m|[0;1mp[0m|[7;1m [0m|[0;1mp[0m|[7;1m [0m|[0;1mp[0m|[0;1mp[0m|[0;1mp[0m|| 2
[32;1m[Board] [0m  -------------------
[32;1m[Board] [0m1 ||[0;1mr[0m|[0;1mk[0m|[0;1mb[0m|[7;1m [0m|[0;1mK[0m|[0;1mb[0m|[0;1mk[0m|[0;1mr[0m|| 1
[32;1m[Board] [0m  -------------------
[32;1m[Board] [0m    a b c d e f g h
[32;1m[Board] [0m
[32;1m[Referee] [0mThis is the turn of the Black player...
[32;1m[Game] [0mPlayer's error code: 0
[32;1m[Game] [0mChecking move validity...
[32;1m[Board] [0mInitializing board...
[32;1m[Board] [0mLoading history file `championship/lizzie-iii-blueherring/history.csv`...
[32;1m[Board] [0mLoaded 13 move(s).
[32;1m[Board] [0mLoading move file `championship/lizzie-iii-blueherring/move.csv`...
[32;1m[Board] [0mBlack player is playing e4 to c5.
[32;1m[Board] [0m[5;1mBlack Knight is taking White Queen.[0m
[32;1m[Board] [0m
[32;1m[Board] [0m    a b c d e f g h 
[32;1m[Board] [0m  -------------------
[32;1m[Board] [0m8 ||[30;1mr[0m| |[30;1mb[0m|[30;1mQ[0m|[30;1mK[0m|[30;1mb[0m|[7;1m [0m|[30;1mr[0m|| 8
[32;1m[Board] [0m  -------------------
[32;1m[Board] [0m7 ||[30;1mp[0m|[30;1mp[0m|[30;1mp[0m|[30;1mp[0m|[30;1mp[0m|[30;1mp[0m|[30;1mp[0m|[30;1mp[0m|| 7
[32;1m[Board] [0m  -------------------
[32;1m[Board] [0m6 ||[7;1m [0m| |[7;1m [0m|[30;1mk[0m|[7;1m [0m| |[7;1m [0m| || 6
[32;1m[Board] [0m  -------------------
[32;1m[Board] [0m5 || |[7;1m [0m|[30;1mk[0m|[7;1m [0m| |[7;1m [0m| |[7;1m [0m|| 5
[32;1m[Board] [0m  -------------------
[32;1m[Board] [0m4 ||[7;1m [0m| |[0;1mp[0m| |[7;1m [0m| |[7;1m [0m| || 4
[32;1m[Board] [0m  -------------------
[32;1m[Board] [0m3 ||[0;1mp[0m|[7;1m [0m| |[7;1m [0m|[0;1mp[0m|[7;1m [0m| |[7;1m [0m|| 3
[32;1m[Board] [0m  -------------------
[32;1m[Board] [0m2 ||[7;1m [0m|[0;1mp[0m|[7;1m [0m|[0;1mp[0m|[7;1m [0m|[0;1mp[0m|[0;1mp[0m|[0;1mp[0m|| 2
[32;1m[Board] [0m  -------------------
[32;1m[Board] [0m1 ||[0;1mr[0m|[0;1mk[0m|[0;1mb[0m|[7;1m [0m|[0;1mK[0m|[0;1mb[0m|[0;1mk[0m|[0;1mr[0m|| 1
[32;1m[Board] [0m  -------------------
[32;1m[Board] [0m    a b c d e f g h
[32;1m[Board] [0m
[32;1m[Referee] [0mThis is the turn of the White player...
Input file: championship/lizzie-iii-blueherring/history.csv
Output file: championship/lizzie-iii-blueherring/move.csv
Turn of: white
Succesful move
c2c3
8 | R N B Q K B N R 
7 | P P P P P P P P 
6 | _ _ _ _ _ _ _ _ 
5 | _ _ _ _ _ _ _ _ 
4 | _ _ _ _ _ _ _ _ 
3 | _ _ P _ _ _ _ _ 
2 | P P _ P P P P P 
1 | R N B Q K B N R 
-------------------
  | A B C D E F G H 

Turn of: black
Succesful move
b8c6
8 | R _ B Q K B N R 
7 | P P P P P P P P 
6 | _ _ N _ _ _ _ _ 
5 | _ _ _ _ _ _ _ _ 
4 | _ _ _ _ _ _ _ _ 
3 | _ _ P _ _ _ _ _ 
2 | P P _ P P P P P 
1 | R N B Q K B N R 
-------------------
  | A B C D E F G H 

Turn of: white
Succesful move
c3c4
8 | R _ B Q K B N R 
7 | P P P P P P P P 
6 | _ _ N _ _ _ _ _ 
5 | _ _ _ _ _ _ _ _ 
4 | _ _ P _ _ _ _ _ 
3 | _ _ _ _ _ _ _ _ 
2 | P P _ P P P P P 
1 | R N B Q K B N R 
-------------------
  | A B C D E F G H 

Turn of: black
Succesful move
c6d4
8 | R _ B Q K B N R 
7 | P P P P P P P P 
6 | _ _ _ _ _ _ _ _ 
5 | _ _ _ _ _ _ _ _ 
4 | _ _ P N _ _ _ _ 
3 | _ _ _ _ _ _ _ _ 
2 | P P _ P P P P P 
1 | R N B Q K B N R 
-------------------
  | A B C D E F G H 

Turn of: white
Succesful move
e2e3
8 | R _ B Q K B N R 
7 | P P P P P P P P 
6 | _ _ _ _ _ _ _ _ 
5 | _ _ _ _ _ _ _ _ 
4 | _ _ P N _ _ _ _ 
3 | _ _ _ _ P _ _ _ 
2 | P P _ P _ P P P 
1 | R N B Q K B N R 
-------------------
  | A B C D E F G H 

Turn of: black
Succesful move
d4f5
8 | R _ B Q K B N R 
7 | P P P P P P P P 
6 | _ _ _ _ _ _ _ _ 
5 | _ _ _ _ _ N _ _ 
4 | _ _ P _ _ _ _ _ 
3 | _ _ _ _ P _ _ _ 
2 | P P _ P _ P P P 
1 | R N B Q K B N R 
-------------------
  | A B C D E F G H 

Turn of: white
Succesful move
d1a4
8 | R _ B Q K B N R 
7 | P P P P P P P P 
6 | _ _ _ _ _ _ _ _ 
5 | _ _ _ _ _ N _ _ 
4 | Q _ P _ _ _ _ _ 
3 | _ _ _ _ P _ _ _ 
2 | P P _ P _ P P P 
1 | R N B _ K B N R 
-------------------
  | A B C D E F G H 

Turn of: black
Succesful move
g8f6
8 | R _ B Q K B _ R 
7 | P P P P P P P P 
6 | _ _ _ _ _ N _ _ 
5 | _ _ _ _ _ N _ _ 
4 | Q _ P _ _ _ _ _ 
3 | _ _ _ _ P _ _ _ 
2 | P P _ P _ P P P 
1 | R N B _ K B N R 
-------------------
  | A B C D E F G H 

Turn of: white
Succesful move
a2a3
8 | R _ B Q K B _ R 
7 | P P P P P P P P 
6 | _ _ _ _ _ N _ _ 
5 | _ _ _ _ _ N _ _ 
4 | Q _ P _ _ _ _ _ 
3 | P _ _ _ P _ _ _ 
2 | _ P _ P _ P P P 
1 | R N B _ K B N R 
-------------------
  | A B C D E F G H 

Turn of: black
Succesful move
f6e4
8 | R _ B Q K B _ R 
7 | P P P P P P P P 
6 | _ _ _ _ _ _ _ _ 
5 | _ _ _ _ _ N _ _ 
4 | Q _ P _ N _ _ _ 
3 | P _ _ _ P _ _ _ 
2 | _ P _ P _ P P P 
1 | R N B _ K B N R 
-------------------
  | A B C D E F G H 

Turn of: white
Succesful move
a4b5
8 | R _ B Q K B _ R 
7 | P P P P P P P P 
6 | _ _ _ _ _ _ _ _ 
5 | _ Q _ _ _ N _ _ 
4 | _ _ P _ N _ _ _ 
3 | P _ _ _ P _ _ _ 
2 | _ P _ P _ P P P 
1 | R N B _ K B N R 
-------------------
  | A B C D E F G H 

Turn of: black
Succesful move
f5d6
8 | R _ B Q K B _ R 
7 | P P P P P P P P 
6 | _ _ _ N _ _ _ _ 
5 | _ Q _ _ _ _ _ _ 
4 | _ _ P _ N _ _ _ 
3 | P _ _ _ P _ _ _ 
2 | _ P _ P _ P P P 
1 | R N B _ K B N R 
-------------------
  | A B C D E F G H 

Turn of: white
Succesful move
b5c5
8 | R _ B Q K B _ R 
7 | P P P P P P P P 
6 | _ _ _ N _ _ _ _ 
5 | _ _ Q _ _ _ _ _ 
4 | _ _ P _ N _ _ _ 
3 | P _ _ _ P _ _ _ 
2 | _ P _ P _ P P P 
1 | R N B _ K B N R 
-------------------
  | A B C D E F G H 

Turn of: black
Succesful move
e4c5
8 | R _ B Q K B _ R 
7 | P P P P P P P P 
6 | _ _ _ N _ _ _ _ 
5 | _ _ N _ _ _ _ _ 
4 | _ _ P _ _ _ _ _ 
3 | P _ _ _ P _ _ _ 
2 | _ P _ P _ P P P 
1 | R N B _ K B N R 
-------------------
  | A B C D E F G H 

We are playing as White
Move history:
c2c3
b8c6
c3c4
c6d4
e2e3
d4f5
d1a4
g8f6
a2a3
f6e4
a4b5
f5d6
b5c5
e4c5
8 | R _ B Q K B _ R 
7 | P P P P P P P P 
6 | _ _ _ N _ _ _ _ 
5 | _ _ N _ _ _ _ _ 
4 | _ _ P _ _ _ _ _ 
3 | P _ _ _ P _ _ _ 
2 | _ P _ P _ P P P 
1 | R N B _ K B N R 
-------------------
  | A B C D E F G H 

It is white's turn to play.
AI's move: h2h4
Move written: h2h4
[32;1m[Game] [0mPlayer's error code: 0
[32;1m[Game] [0mChecking move validity...
[32;1m[Board] [0mInitializing board...
[32;1m[Board] [0mLoading history file `championship/lizzie-iii-blueherring/history.csv`...
[32;1m[Board] [0mLoaded 14 move(s).
[32;1m[Board] [0mLoading move file `championship/lizzie-iii-blueherring/move.csv`...
[32;1m[Board] [0mWhite player is playing h2 to h4.
[32;1m[Board] [0m
[32;1m[Board] [0m    a b c d e f g h 
[32;1m[Board] [0m  -------------------
[32;1m[Board] [0m8 ||[30;1mr[0m| |[30;1mb[0m|[30;1mQ[0m|[30;1mK[0m|[30;1mb[0m|[7;1m [0m|[30;1mr[0m|| 8
[32;1m[Board] [0m  -------------------
[32;1m[Board] [0m7 ||[30;1mp[0m|[30;1mp[0m|[30;1mp[0m|[30;1mp[0m|[30;1mp[0m|[30;1mp[0m|[30;1mp[0m|[30;1mp[0m|| 7
[32;1m[Board] [0m  -------------------
[32;1m[Board] [0m6 ||[7;1m [0m| |[7;1m [0m|[30;1mk[0m|[7;1m [0m| |[7;1m [0m| || 6
[32;1m[Board] [0m  -------------------
[32;1m[Board] [0m5 || |[7;1m [0m|[30;1mk[0m|[7;1m [0m| |[7;1m [0m| |[7;1m [0m|| 5
[32;1m[Board] [0m  -------------------
[32;1m[Board] [0m4 ||[7;1m [0m| |[0;1mp[0m| |[7;1m [0m| |[7;1m [0m|[0;1mp[0m|| 4
[32;1m[Board] [0m  -------------------
[32;1m[Board] [0m3 ||[0;1mp[0m|[7;1m [0m| |[7;1m [0m|[0;1mp[0m|[7;1m [0m| |[7;1m [0m|| 3
[32;1m[Board] [0m  -------------------
[32;1m[Board] [0m2 ||[7;1m [0m|[0;1mp[0m|[7;1m [0m|[0;1mp[0m|[7;1m [0m|[0;1mp[0m|[0;1mp[0m| || 2
[32;1m[Board] [0m  -------------------
[32;1m[Board] [0m1 ||[0;1mr[0m|[0;1mk[0m|[0;1mb[0m|[7;1m [0m|[0;1mK[0m|[0;1mb[0m|[0;1mk[0m|[0;1mr[0m|| 1
[32;1m[Board] [0m  -------------------
[32;1m[Board] [0m    a b c d e f g h
[32;1m[Board] [0m
[32;1m[Referee] [0mThis is the turn of the Black player...
[32;1m[Game] [0mPlayer's error code: 0
[32;1m[Game] [0mChecking move validity...
[32;1m[Board] [0mInitializing board...
[32;1m[Board] [0mLoading history file `championship/lizzie-iii-blueherring/history.csv`...
[32;1m[Board] [0mLoaded 15 move(s).
[32;1m[Board] [0mLoading move file `championship/lizzie-iii-blueherring/move.csv`...
[32;1m[Board] [0mBlack player is playing c5 to b3.
[32;1m[Board] [0m
[32;1m[Board] [0m    a b c d e f g h 
[32;1m[Board] [0m  -------------------
[32;1m[Board] [0m8 ||[30;1mr[0m| |[30;1mb[0m|[30;1mQ[0m|[30;1mK[0m|[30;1mb[0m|[7;1m [0m|[30;1mr[0m|| 8
[32;1m[Board] [0m  -------------------
[32;1m[Board] [0m7 ||[30;1mp[0m|[30;1mp[0m|[30;1mp[0m|[30;1mp[0m|[30;1mp[0m|[30;1mp[0m|[30;1mp[0m|[30;1mp[0m|| 7
[32;1m[Board] [0m  -------------------
[32;1m[Board] [0m6 ||[7;1m [0m| |[7;1m [0m|[30;1mk[0m|[7;1m [0m| |[7;1m [0m| || 6
[32;1m[Board] [0m  -------------------
[32;1m[Board] [0m5 || |[7;1m [0m| |[7;1m [0m| |[7;1m [0m| |[7;1m [0m|| 5
[32;1m[Board] [0m  -------------------
[32;1m[Board] [0m4 ||[7;1m [0m| |[0;1mp[0m| |[7;1m [0m| |[7;1m [0m|[0;1mp[0m|| 4
[32;1m[Board] [0m  -------------------
[32;1m[Board] [0m3 ||[0;1mp[0m|[30;1mk[0m| |[7;1m [0m|[0;1mp[0m|[7;1m [0m| |[7;1m [0m|| 3
[32;1m[Board] [0m  -------------------
[32;1m[Board] [0m2 ||[7;1m [0m|[0;1mp[0m|[7;1m [0m|[0;1mp[0m|[7;1m [0m|[0;1mp[0m|[0;1mp[0m| || 2
[32;1m[Board] [0m  -------------------
[32;1m[Board] [0m1 ||[0;1mr[0m|[0;1mk[0m|[0;1mb[0m|[7;1m [0m|[0;1mK[0m|[0;1mb[0m|[0;1mk[0m|[0;1mr[0m|| 1
[32;1m[Board] [0m  -------------------
[32;1m[Board] [0m    a b c d e f g h
[32;1m[Board] [0m
[32;1m[Referee] [0mThis is the turn of the White player...
Input file: championship/lizzie-iii-blueherring/history.csv
Output file: championship/lizzie-iii-blueherring/move.csv
Turn of: white
Succesful move
c2c3
8 | R N B Q K B N R 
7 | P P P P P P P P 
6 | _ _ _ _ _ _ _ _ 
5 | _ _ _ _ _ _ _ _ 
4 | _ _ _ _ _ _ _ _ 
3 | _ _ P _ _ _ _ _ 
2 | P P _ P P P P P 
1 | R N B Q K B N R 
-------------------
  | A B C D E F G H 

Turn of: black
Succesful move
b8c6
8 | R _ B Q K B N R 
7 | P P P P P P P P 
6 | _ _ N _ _ _ _ _ 
5 | _ _ _ _ _ _ _ _ 
4 | _ _ _ _ _ _ _ _ 
3 | _ _ P _ _ _ _ _ 
2 | P P _ P P P P P 
1 | R N B Q K B N R 
-------------------
  | A B C D E F G H 

Turn of: white
Succesful move
c3c4
8 | R _ B Q K B N R 
7 | P P P P P P P P 
6 | _ _ N _ _ _ _ _ 
5 | _ _ _ _ _ _ _ _ 
4 | _ _ P _ _ _ _ _ 
3 | _ _ _ _ _ _ _ _ 
2 | P P _ P P P P P 
1 | R N B Q K B N R 
-------------------
  | A B C D E F G H 

Turn of: black
Succesful move
c6d4
8 | R _ B Q K B N R 
7 | P P P P P P P P 
6 | _ _ _ _ _ _ _ _ 
5 | _ _ _ _ _ _ _ _ 
4 | _ _ P N _ _ _ _ 
3 | _ _ _ _ _ _ _ _ 
2 | P P _ P P P P P 
1 | R N B Q K B N R 
-------------------
  | A B C D E F G H 

Turn of: white
Succesful move
e2e3
8 | R _ B Q K B N R 
7 | P P P P P P P P 
6 | _ _ _ _ _ _ _ _ 
5 | _ _ _ _ _ _ _ _ 
4 | _ _ P N _ _ _ _ 
3 | _ _ _ _ P _ _ _ 
2 | P P _ P _ P P P 
1 | R N B Q K B N R 
-------------------
  | A B C D E F G H 

Turn of: black
Succesful move
d4f5
8 | R _ B Q K B N R 
7 | P P P P P P P P 
6 | _ _ _ _ _ _ _ _ 
5 | _ _ _ _ _ N _ _ 
4 | _ _ P _ _ _ _ _ 
3 | _ _ _ _ P _ _ _ 
2 | P P _ P _ P P P 
1 | R N B Q K B N R 
-------------------
  | A B C D E F G H 

Turn of: white
Succesful move
d1a4
8 | R _ B Q K B N R 
7 | P P P P P P P P 
6 | _ _ _ _ _ _ _ _ 
5 | _ _ _ _ _ N _ _ 
4 | Q _ P _ _ _ _ _ 
3 | _ _ _ _ P _ _ _ 
2 | P P _ P _ P P P 
1 | R N B _ K B N R 
-------------------
  | A B C D E F G H 

Turn of: black
Succesful move
g8f6
8 | R _ B Q K B _ R 
7 | P P P P P P P P 
6 | _ _ _ _ _ N _ _ 
5 | _ _ _ _ _ N _ _ 
4 | Q _ P _ _ _ _ _ 
3 | _ _ _ _ P _ _ _ 
2 | P P _ P _ P P P 
1 | R N B _ K B N R 
-------------------
  | A B C D E F G H 

Turn of: white
Succesful move
a2a3
8 | R _ B Q K B _ R 
7 | P P P P P P P P 
6 | _ _ _ _ _ N _ _ 
5 | _ _ _ _ _ N _ _ 
4 | Q _ P _ _ _ _ _ 
3 | P _ _ _ P _ _ _ 
2 | _ P _ P _ P P P 
1 | R N B _ K B N R 
-------------------
  | A B C D E F G H 

Turn of: black
Succesful move
f6e4
8 | R _ B Q K B _ R 
7 | P P P P P P P P 
6 | _ _ _ _ _ _ _ _ 
5 | _ _ _ _ _ N _ _ 
4 | Q _ P _ N _ _ _ 
3 | P _ _ _ P _ _ _ 
2 | _ P _ P _ P P P 
1 | R N B _ K B N R 
-------------------
  | A B C D E F G H 

Turn of: white
Succesful move
a4b5
8 | R _ B Q K B _ R 
7 | P P P P P P P P 
6 | _ _ _ _ _ _ _ _ 
5 | _ Q _ _ _ N _ _ 
4 | _ _ P _ N _ _ _ 
3 | P _ _ _ P _ _ _ 
2 | _ P _ P _ P P P 
1 | R N B _ K B N R 
-------------------
  | A B C D E F G H 

Turn of: black
Succesful move
f5d6
8 | R _ B Q K B _ R 
7 | P P P P P P P P 
6 | _ _ _ N _ _ _ _ 
5 | _ Q _ _ _ _ _ _ 
4 | _ _ P _ N _ _ _ 
3 | P _ _ _ P _ _ _ 
2 | _ P _ P _ P P P 
1 | R N B _ K B N R 
-------------------
  | A B C D E F G H 

Turn of: white
Succesful move
b5c5
8 | R _ B Q K B _ R 
7 | P P P P P P P P 
6 | _ _ _ N _ _ _ _ 
5 | _ _ Q _ _ _ _ _ 
4 | _ _ P _ N _ _ _ 
3 | P _ _ _ P _ _ _ 
2 | _ P _ P _ P P P 
1 | R N B _ K B N R 
-------------------
  | A B C D E F G H 

Turn of: black
Succesful move
e4c5
8 | R _ B Q K B _ R 
7 | P P P P P P P P 
6 | _ _ _ N _ _ _ _ 
5 | _ _ N _ _ _ _ _ 
4 | _ _ P _ _ _ _ _ 
3 | P _ _ _ P _ _ _ 
2 | _ P _ P _ P P P 
1 | R N B _ K B N R 
-------------------
  | A B C D E F G H 

Turn of: white
Succesful move
h2h4
8 | R _ B Q K B _ R 
7 | P P P P P P P P 
6 | _ _ _ N _ _ _ _ 
5 | _ _ N _ _ _ _ _ 
4 | _ _ P _ _ _ _ P 
3 | P _ _ _ P _ _ _ 
2 | _ P _ P _ P P _ 
1 | R N B _ K B N R 
-------------------
  | A B C D E F G H 

Turn of: black
Succesful move
c5b3
8 | R _ B Q K B _ R 
7 | P P P P P P P P 
6 | _ _ _ N _ _ _ _ 
5 | _ _ _ _ _ _ _ _ 
4 | _ _ P _ _ _ _ P 
3 | P N _ _ P _ _ _ 
2 | _ P _ P _ P P _ 
1 | R N B _ K B N R 
-------------------
  | A B C D E F G H 

We are playing as White
Move history:
c2c3
b8c6
c3c4
c6d4
e2e3
d4f5
d1a4
g8f6
a2a3
f6e4
a4b5
f5d6
b5c5
e4c5
h2h4
c5b3
8 | R _ B Q K B _ R 
7 | P P P P P P P P 
6 | _ _ _ N _ _ _ _ 
5 | _ _ _ _ _ _ _ _ 
4 | _ _ P _ _ _ _ P 
3 | P N _ _ P _ _ _ 
2 | _ P _ P _ P P _ 
1 | R N B _ K B N R 
-------------------
  | A B C D E F G H 

It is white's turn to play.
AI's move: f2f3
Move written: f2f3
[32;1m[Game] [0mPlayer's error code: 0
[32;1m[Game] [0mChecking move validity...
[32;1m[Board] [0mInitializing board...
[32;1m[Board] [0mLoading history file `championship/lizzie-iii-blueherring/history.csv`...
[32;1m[Board] [0mLoaded 16 move(s).
[32;1m[Board] [0mLoading move file `championship/lizzie-iii-blueherring/move.csv`...
[32;1m[Board] [0mWhite player is playing f2 to f3.
[32;1m[Board] [0m
[32;1m[Board] [0m    a b c d e f g h 
[32;1m[Board] [0m  -------------------
[32;1m[Board] [0m8 ||[30;1mr[0m| |[30;1mb[0m|[30;1mQ[0m|[30;1mK[0m|[30;1mb[0m|[7;1m [0m|[30;1mr[0m|| 8
[32;1m[Board] [0m  -------------------
[32;1m[Board] [0m7 ||[30;1mp[0m|[30;1mp[0m|[30;1mp[0m|[30;1mp[0m|[30;1mp[0m|[30;1mp[0m|[30;1mp[0m|[30;1mp[0m|| 7
[32;1m[Board] [0m  -------------------
[32;1m[Board] [0m6 ||[7;1m [0m| |[7;1m [0m|[30;1mk[0m|[7;1m [0m| |[7;1m [0m| || 6
[32;1m[Board] [0m  -------------------
[32;1m[Board] [0m5 || |[7;1m [0m| |[7;1m [0m| |[7;1m [0m| |[7;1m [0m|| 5
[32;1m[Board] [0m  -------------------
[32;1m[Board] [0m4 ||[7;1m [0m| |[0;1mp[0m| |[7;1m [0m| |[7;1m [0m|[0;1mp[0m|| 4
[32;1m[Board] [0m  -------------------
[32;1m[Board] [0m3 ||[0;1mp[0m|[30;1mk[0m| |[7;1m [0m|[0;1mp[0m|[0;1mp[0m| |[7;1m [0m|| 3
[32;1m[Board] [0m  -------------------
[32;1m[Board] [0m2 ||[7;1m [0m|[0;1mp[0m|[7;1m [0m|[0;1mp[0m|[7;1m [0m| |[0;1mp[0m| || 2
[32;1m[Board] [0m  -------------------
[32;1m[Board] [0m1 ||[0;1mr[0m|[0;1mk[0m|[0;1mb[0m|[7;1m [0m|[0;1mK[0m|[0;1mb[0m|[0;1mk[0m|[0;1mr[0m|| 1
[32;1m[Board] [0m  -------------------
[32;1m[Board] [0m    a b c d e f g h
[32;1m[Board] [0m
[32;1m[Referee] [0mThis is the turn of the Black player...
[32;1m[Game] [0mPlayer's error code: 0
[32;1m[Game] [0mChecking move validity...
[32;1m[Board] [0mInitializing board...
[32;1m[Board] [0mLoading history file `championship/lizzie-iii-blueherring/history.csv`...
[32;1m[Board] [0mLoaded 17 move(s).
[32;1m[Board] [0mLoading move file `championship/lizzie-iii-blueherring/move.csv`...
[32;1m[Board] [0mBlack player is playing b3 to a1.
[32;1m[Board] [0m[5;1mBlack Knight is taking White Rook.[0m
[32;1m[Board] [0m
[32;1m[Board] [0m    a b c d e f g h 
[32;1m[Board] [0m  -------------------
[32;1m[Board] [0m8 ||[30;1mr[0m| |[30;1mb[0m|[30;1mQ[0m|[30;1mK[0m|[30;1mb[0m|[7;1m [0m|[30;1mr[0m|| 8
[32;1m[Board] [0m  -------------------
[32;1m[Board] [0m7 ||[30;1mp[0m|[30;1mp[0m|[30;1mp[0m|[30;1mp[0m|[30;1mp[0m|[30;1mp[0m|[30;1mp[0m|[30;1mp[0m|| 7
[32;1m[Board] [0m  -------------------
[32;1m[Board] [0m6 ||[7;1m [0m| |[7;1m [0m|[30;1mk[0m|[7;1m [0m| |[7;1m [0m| || 6
[32;1m[Board] [0m  -------------------
[32;1m[Board] [0m5 || |[7;1m [0m| |[7;1m [0m| |[7;1m [0m| |[7;1m [0m|| 5
[32;1m[Board] [0m  -------------------
[32;1m[Board] [0m4 ||[7;1m [0m| |[0;1mp[0m| |[7;1m [0m| |[7;1m [0m|[0;1mp[0m|| 4
[32;1m[Board] [0m  -------------------
[32;1m[Board] [0m3 ||[0;1mp[0m|[7;1m [0m| |[7;1m [0m|[0;1mp[0m|[0;1mp[0m| |[7;1m [0m|| 3
[32;1m[Board] [0m  -------------------
[32;1m[Board] [0m2 ||[7;1m [0m|[0;1mp[0m|[7;1m [0m|[0;1mp[0m|[7;1m [0m| |[0;1mp[0m| || 2
[32;1m[Board] [0m  -------------------
[32;1m[Board] [0m1 ||[30;1mk[0m|[0;1mk[0m|[0;1mb[0m|[7;1m [0m|[0;1mK[0m|[0;1mb[0m|[0;1mk[0m|[0;1mr[0m|| 1
[32;1m[Board] [0m  -------------------
[32;1m[Board] [0m    a b c d e f g h
[32;1m[Board] [0m
[32;1m[Referee] [0mThis is the turn of the White player...
Input file: championship/lizzie-iii-blueherring/history.csv
Output file: championship/lizzie-iii-blueherring/move.csv
Turn of: white
Succesful move
c2c3
8 | R N B Q K B N R 
7 | P P P P P P P P 
6 | _ _ _ _ _ _ _ _ 
5 | _ _ _ _ _ _ _ _ 
4 | _ _ _ _ _ _ _ _ 
3 | _ _ P _ _ _ _ _ 
2 | P P _ P P P P P 
1 | R N B Q K B N R 
-------------------
  | A B C D E F G H 

Turn of: black
Succesful move
b8c6
8 | R _ B Q K B N R 
7 | P P P P P P P P 
6 | _ _ N _ _ _ _ _ 
5 | _ _ _ _ _ _ _ _ 
4 | _ _ _ _ _ _ _ _ 
3 | _ _ P _ _ _ _ _ 
2 | P P _ P P P P P 
1 | R N B Q K B N R 
-------------------
  | A B C D E F G H 

Turn of: white
Succesful move
c3c4
8 | R _ B Q K B N R 
7 | P P P P P P P P 
6 | _ _ N _ _ _ _ _ 
5 | _ _ _ _ _ _ _ _ 
4 | _ _ P _ _ _ _ _ 
3 | _ _ _ _ _ _ _ _ 
2 | P P _ P P P P P 
1 | R N B Q K B N R 
-------------------
  | A B C D E F G H 

Turn of: black
Succesful move
c6d4
8 | R _ B Q K B N R 
7 | P P P P P P P P 
6 | _ _ _ _ _ _ _ _ 
5 | _ _ _ _ _ _ _ _ 
4 | _ _ P N _ _ _ _ 
3 | _ _ _ _ _ _ _ _ 
2 | P P _ P P P P P 
1 | R N B Q K B N R 
-------------------
  | A B C D E F G H 

Turn of: white
Succesful move
e2e3
8 | R _ B Q K B N R 
7 | P P P P P P P P 
6 | _ _ _ _ _ _ _ _ 
5 | _ _ _ _ _ _ _ _ 
4 | _ _ P N _ _ _ _ 
3 | _ _ _ _ P _ _ _ 
2 | P P _ P _ P P P 
1 | R N B Q K B N R 
-------------------
  | A B C D E F G H 

Turn of: black
Succesful move
d4f5
8 | R _ B Q K B N R 
7 | P P P P P P P P 
6 | _ _ _ _ _ _ _ _ 
5 | _ _ _ _ _ N _ _ 
4 | _ _ P _ _ _ _ _ 
3 | _ _ _ _ P _ _ _ 
2 | P P _ P _ P P P 
1 | R N B Q K B N R 
-------------------
  | A B C D E F G H 

Turn of: white
Succesful move
d1a4
8 | R _ B Q K B N R 
7 | P P P P P P P P 
6 | _ _ _ _ _ _ _ _ 
5 | _ _ _ _ _ N _ _ 
4 | Q _ P _ _ _ _ _ 
3 | _ _ _ _ P _ _ _ 
2 | P P _ P _ P P P 
1 | R N B _ K B N R 
-------------------
  | A B C D E F G H 

Turn of: black
Succesful move
g8f6
8 | R _ B Q K B _ R 
7 | P P P P P P P P 
6 | _ _ _ _ _ N _ _ 
5 | _ _ _ _ _ N _ _ 
4 | Q _ P _ _ _ _ _ 
3 | _ _ _ _ P _ _ _ 
2 | P P _ P _ P P P 
1 | R N B _ K B N R 
-------------------
  | A B C D E F G H 

Turn of: white
Succesful move
a2a3
8 | R _ B Q K B _ R 
7 | P P P P P P P P 
6 | _ _ _ _ _ N _ _ 
5 | _ _ _ _ _ N _ _ 
4 | Q _ P _ _ _ _ _ 
3 | P _ _ _ P _ _ _ 
2 | _ P _ P _ P P P 
1 | R N B _ K B N R 
-------------------
  | A B C D E F G H 

Turn of: black
Succesful move
f6e4
8 | R _ B Q K B _ R 
7 | P P P P P P P P 
6 | _ _ _ _ _ _ _ _ 
5 | _ _ _ _ _ N _ _ 
4 | Q _ P _ N _ _ _ 
3 | P _ _ _ P _ _ _ 
2 | _ P _ P _ P P P 
1 | R N B _ K B N R 
-------------------
  | A B C D E F G H 

Turn of: white
Succesful move
a4b5
8 | R _ B Q K B _ R 
7 | P P P P P P P P 
6 | _ _ _ _ _ _ _ _ 
5 | _ Q _ _ _ N _ _ 
4 | _ _ P _ N _ _ _ 
3 | P _ _ _ P _ _ _ 
2 | _ P _ P _ P P P 
1 | R N B _ K B N R 
-------------------
  | A B C D E F G H 

Turn of: black
Succesful move
f5d6
8 | R _ B Q K B _ R 
7 | P P P P P P P P 
6 | _ _ _ N _ _ _ _ 
5 | _ Q _ _ _ _ _ _ 
4 | _ _ P _ N _ _ _ 
3 | P _ _ _ P _ _ _ 
2 | _ P _ P _ P P P 
1 | R N B _ K B N R 
-------------------
  | A B C D E F G H 

Turn of: white
Succesful move
b5c5
8 | R _ B Q K B _ R 
7 | P P P P P P P P 
6 | _ _ _ N _ _ _ _ 
5 | _ _ Q _ _ _ _ _ 
4 | _ _ P _ N _ _ _ 
3 | P _ _ _ P _ _ _ 
2 | _ P _ P _ P P P 
1 | R N B _ K B N R 
-------------------
  | A B C D E F G H 

Turn of: black
Succesful move
e4c5
8 | R _ B Q K B _ R 
7 | P P P P P P P P 
6 | _ _ _ N _ _ _ _ 
5 | _ _ N _ _ _ _ _ 
4 | _ _ P _ _ _ _ _ 
3 | P _ _ _ P _ _ _ 
2 | _ P _ P _ P P P 
1 | R N B _ K B N R 
-------------------
  | A B C D E F G H 

Turn of: white
Succesful move
h2h4
8 | R _ B Q K B _ R 
7 | P P P P P P P P 
6 | _ _ _ N _ _ _ _ 
5 | _ _ N _ _ _ _ _ 
4 | _ _ P _ _ _ _ P 
3 | P _ _ _ P _ _ _ 
2 | _ P _ P _ P P _ 
1 | R N B _ K B N R 
-------------------
  | A B C D E F G H 

Turn of: black
Succesful move
c5b3
8 | R _ B Q K B _ R 
7 | P P P P P P P P 
6 | _ _ _ N _ _ _ _ 
5 | _ _ _ _ _ _ _ _ 
4 | _ _ P _ _ _ _ P 
3 | P N _ _ P _ _ _ 
2 | _ P _ P _ P P _ 
1 | R N B _ K B N R 
-------------------
  | A B C D E F G H 

Turn of: white
Succesful move
f2f3
8 | R _ B Q K B _ R 
7 | P P P P P P P P 
6 | _ _ _ N _ _ _ _ 
5 | _ _ _ _ _ _ _ _ 
4 | _ _ P _ _ _ _ P 
3 | P N _ _ P P _ _ 
2 | _ P _ P _ _ P _ 
1 | R N B _ K B N R 
-------------------
  | A B C D E F G H 

Turn of: black
Succesful move
b3a1
8 | R _ B Q K B _ R 
7 | P P P P P P P P 
6 | _ _ _ N _ _ _ _ 
5 | _ _ _ _ _ _ _ _ 
4 | _ _ P _ _ _ _ P 
3 | P _ _ _ P P _ _ 
2 | _ P _ P _ _ P _ 
1 | N N B _ K B N R 
-------------------
  | A B C D E F G H 

We are playing as White
Move history:
c2c3
b8c6
c3c4
c6d4
e2e3
d4f5
d1a4
g8f6
a2a3
f6e4
a4b5
f5d6
b5c5
e4c5
h2h4
c5b3
f2f3
b3a1
8 | R _ B Q K B _ R 
7 | P P P P P P P P 
6 | _ _ _ N _ _ _ _ 
5 | _ _ _ _ _ _ _ _ 
4 | _ _ P _ _ _ _ P 
3 | P _ _ _ P P _ _ 
2 | _ P _ P _ _ P _ 
1 | N N B _ K B N R 
-------------------
  | A B C D E F G H 

It is white's turn to play.
AI's move: h1h3
Move written: h1h3
[32;1m[Game] [0mPlayer's error code: 0
[32;1m[Game] [0mChecking move validity...
[32;1m[Board] [0mInitializing board...
[32;1m[Board] [0mLoading history file `championship/lizzie-iii-blueherring/history.csv`...
[32;1m[Board] [0mLoaded 18 move(s).
[32;1m[Board] [0mLoading move file `championship/lizzie-iii-blueherring/move.csv`...
[32;1m[Board] [0mWhite player is playing h1 to h3.
[32;1m[Board] [0m
[32;1m[Board] [0m    a b c d e f g h 
[32;1m[Board] [0m  -------------------
[32;1m[Board] [0m8 ||[30;1mr[0m| |[30;1mb[0m|[30;1mQ[0m|[30;1mK[0m|[30;1mb[0m|[7;1m [0m|[30;1mr[0m|| 8
[32;1m[Board] [0m  -------------------
[32;1m[Board] [0m7 ||[30;1mp[0m|[30;1mp[0m|[30;1mp[0m|[30;1mp[0m|[30;1mp[0m|[30;1mp[0m|[30;1mp[0m|[30;1mp[0m|| 7
[32;1m[Board] [0m  -------------------
[32;1m[Board] [0m6 ||[7;1m [0m| |[7;1m [0m|[30;1mk[0m|[7;1m [0m| |[7;1m [0m| || 6
[32;1m[Board] [0m  -------------------
[32;1m[Board] [0m5 || |[7;1m [0m| |[7;1m [0m| |[7;1m [0m| |[7;1m [0m|| 5
[32;1m[Board] [0m  -------------------
[32;1m[Board] [0m4 ||[7;1m [0m| |[0;1mp[0m| |[7;1m [0m| |[7;1m [0m|[0;1mp[0m|| 4
[32;1m[Board] [0m  -------------------
[32;1m[Board] [0m3 ||[0;1mp[0m|[7;1m [0m| |[7;1m [0m|[0;1mp[0m|[0;1mp[0m| |[0;1mr[0m|| 3
[32;1m[Board] [0m  -------------------
[32;1m[Board] [0m2 ||[7;1m [0m|[0;1mp[0m|[7;1m [0m|[0;1mp[0m|[7;1m [0m| |[0;1mp[0m| || 2
[32;1m[Board] [0m  -------------------
[32;1m[Board] [0m1 ||[30;1mk[0m|[0;1mk[0m|[0;1mb[0m|[7;1m [0m|[0;1mK[0m|[0;1mb[0m|[0;1mk[0m|[7;1m [0m|| 1
[32;1m[Board] [0m  -------------------
[32;1m[Board] [0m    a b c d e f g h
[32;1m[Board] [0m
[32;1m[Referee] [0mThis is the turn of the Black player...
[32;1m[Game] [0mPlayer's error code: 0
[32;1m[Game] [0mChecking move validity...
[32;1m[Board] [0mInitializing board...
[32;1m[Board] [0mLoading history file `championship/lizzie-iii-blueherring/history.csv`...
[32;1m[Board] [0mLoaded 19 move(s).
[32;1m[Board] [0mLoading move file `championship/lizzie-iii-blueherring/move.csv`...
[32;1m[Board] [0mBlack player is playing a1 to b3.
[32;1m[Board] [0m
[32;1m[Board] [0m    a b c d e f g h 
[32;1m[Board] [0m  -------------------
[32;1m[Board] [0m8 ||[30;1mr[0m| |[30;1mb[0m|[30;1mQ[0m|[30;1mK[0m|[30;1mb[0m|[7;1m [0m|[30;1mr[0m|| 8
[32;1m[Board] [0m  -------------------
[32;1m[Board] [0m7 ||[30;1mp[0m|[30;1mp[0m|[30;1mp[0m|[30;1mp[0m|[30;1mp[0m|[30;1mp[0m|[30;1mp[0m|[30;1mp[0m|| 7
[32;1m[Board] [0m  -------------------
[32;1m[Board] [0m6 ||[7;1m [0m| |[7;1m [0m|[30;1mk[0m|[7;1m [0m| |[7;1m [0m| || 6
[32;1m[Board] [0m  -------------------
[32;1m[Board] [0m5 || |[7;1m [0m| |[7;1m [0m| |[7;1m [0m| |[7;1m [0m|| 5
[32;1m[Board] [0m  -------------------
[32;1m[Board] [0m4 ||[7;1m [0m| |[0;1mp[0m| |[7;1m [0m| |[7;1m [0m|[0;1mp[0m|| 4
[32;1m[Board] [0m  -------------------
[32;1m[Board] [0m3 ||[0;1mp[0m|[30;1mk[0m| |[7;1m [0m|[0;1mp[0m|[0;1mp[0m| |[0;1mr[0m|| 3
[32;1m[Board] [0m  -------------------
[32;1m[Board] [0m2 ||[7;1m [0m|[0;1mp[0m|[7;1m [0m|[0;1mp[0m|[7;1m [0m| |[0;1mp[0m| || 2
[32;1m[Board] [0m  -------------------
[32;1m[Board] [0m1 || |[0;1mk[0m|[0;1mb[0m|[7;1m [0m|[0;1mK[0m|[0;1mb[0m|[0;1mk[0m|[7;1m [0m|| 1
[32;1m[Board] [0m  -------------------
[32;1m[Board] [0m    a b c d e f g h
[32;1m[Board] [0m
[32;1m[Referee] [0mThis is the turn of the White player...
Input file: championship/lizzie-iii-blueherring/history.csv
Output file: championship/lizzie-iii-blueherring/move.csv
Turn of: white
Succesful move
c2c3
8 | R N B Q K B N R 
7 | P P P P P P P P 
6 | _ _ _ _ _ _ _ _ 
5 | _ _ _ _ _ _ _ _ 
4 | _ _ _ _ _ _ _ _ 
3 | _ _ P _ _ _ _ _ 
2 | P P _ P P P P P 
1 | R N B Q K B N R 
-------------------
  | A B C D E F G H 

Turn of: black
Succesful move
b8c6
8 | R _ B Q K B N R 
7 | P P P P P P P P 
6 | _ _ N _ _ _ _ _ 
5 | _ _ _ _ _ _ _ _ 
4 | _ _ _ _ _ _ _ _ 
3 | _ _ P _ _ _ _ _ 
2 | P P _ P P P P P 
1 | R N B Q K B N R 
-------------------
  | A B C D E F G H 

Turn of: white
Succesful move
c3c4
8 | R _ B Q K B N R 
7 | P P P P P P P P 
6 | _ _ N _ _ _ _ _ 
5 | _ _ _ _ _ _ _ _ 
4 | _ _ P _ _ _ _ _ 
3 | _ _ _ _ _ _ _ _ 
2 | P P _ P P P P P 
1 | R N B Q K B N R 
-------------------
  | A B C D E F G H 

Turn of: black
Succesful move
c6d4
8 | R _ B Q K B N R 
7 | P P P P P P P P 
6 | _ _ _ _ _ _ _ _ 
5 | _ _ _ _ _ _ _ _ 
4 | _ _ P N _ _ _ _ 
3 | _ _ _ _ _ _ _ _ 
2 | P P _ P P P P P 
1 | R N B Q K B N R 
-------------------
  | A B C D E F G H 

Turn of: white
Succesful move
e2e3
8 | R _ B Q K B N R 
7 | P P P P P P P P 
6 | _ _ _ _ _ _ _ _ 
5 | _ _ _ _ _ _ _ _ 
4 | _ _ P N _ _ _ _ 
3 | _ _ _ _ P _ _ _ 
2 | P P _ P _ P P P 
1 | R N B Q K B N R 
-------------------
  | A B C D E F G H 

Turn of: black
Succesful move
d4f5
8 | R _ B Q K B N R 
7 | P P P P P P P P 
6 | _ _ _ _ _ _ _ _ 
5 | _ _ _ _ _ N _ _ 
4 | _ _ P _ _ _ _ _ 
3 | _ _ _ _ P _ _ _ 
2 | P P _ P _ P P P 
1 | R N B Q K B N R 
-------------------
  | A B C D E F G H 

Turn of: white
Succesful move
d1a4
8 | R _ B Q K B N R 
7 | P P P P P P P P 
6 | _ _ _ _ _ _ _ _ 
5 | _ _ _ _ _ N _ _ 
4 | Q _ P _ _ _ _ _ 
3 | _ _ _ _ P _ _ _ 
2 | P P _ P _ P P P 
1 | R N B _ K B N R 
-------------------
  | A B C D E F G H 

Turn of: black
Succesful move
g8f6
8 | R _ B Q K B _ R 
7 | P P P P P P P P 
6 | _ _ _ _ _ N _ _ 
5 | _ _ _ _ _ N _ _ 
4 | Q _ P _ _ _ _ _ 
3 | _ _ _ _ P _ _ _ 
2 | P P _ P _ P P P 
1 | R N B _ K B N R 
-------------------
  | A B C D E F G H 

Turn of: white
Succesful move
a2a3
8 | R _ B Q K B _ R 
7 | P P P P P P P P 
6 | _ _ _ _ _ N _ _ 
5 | _ _ _ _ _ N _ _ 
4 | Q _ P _ _ _ _ _ 
3 | P _ _ _ P _ _ _ 
2 | _ P _ P _ P P P 
1 | R N B _ K B N R 
-------------------
  | A B C D E F G H 

Turn of: black
Succesful move
f6e4
8 | R _ B Q K B _ R 
7 | P P P P P P P P 
6 | _ _ _ _ _ _ _ _ 
5 | _ _ _ _ _ N _ _ 
4 | Q _ P _ N _ _ _ 
3 | P _ _ _ P _ _ _ 
2 | _ P _ P _ P P P 
1 | R N B _ K B N R 
-------------------
  | A B C D E F G H 

Turn of: white
Succesful move
a4b5
8 | R _ B Q K B _ R 
7 | P P P P P P P P 
6 | _ _ _ _ _ _ _ _ 
5 | _ Q _ _ _ N _ _ 
4 | _ _ P _ N _ _ _ 
3 | P _ _ _ P _ _ _ 
2 | _ P _ P _ P P P 
1 | R N B _ K B N R 
-------------------
  | A B C D E F G H 

Turn of: black
Succesful move
f5d6
8 | R _ B Q K B _ R 
7 | P P P P P P P P 
6 | _ _ _ N _ _ _ _ 
5 | _ Q _ _ _ _ _ _ 
4 | _ _ P _ N _ _ _ 
3 | P _ _ _ P _ _ _ 
2 | _ P _ P _ P P P 
1 | R N B _ K B N R 
-------------------
  | A B C D E F G H 

Turn of: white
Succesful move
b5c5
8 | R _ B Q K B _ R 
7 | P P P P P P P P 
6 | _ _ _ N _ _ _ _ 
5 | _ _ Q _ _ _ _ _ 
4 | _ _ P _ N _ _ _ 
3 | P _ _ _ P _ _ _ 
2 | _ P _ P _ P P P 
1 | R N B _ K B N R 
-------------------
  | A B C D E F G H 

Turn of: black
Succesful move
e4c5
8 | R _ B Q K B _ R 
7 | P P P P P P P P 
6 | _ _ _ N _ _ _ _ 
5 | _ _ N _ _ _ _ _ 
4 | _ _ P _ _ _ _ _ 
3 | P _ _ _ P _ _ _ 
2 | _ P _ P _ P P P 
1 | R N B _ K B N R 
-------------------
  | A B C D E F G H 

Turn of: white
Succesful move
h2h4
8 | R _ B Q K B _ R 
7 | P P P P P P P P 
6 | _ _ _ N _ _ _ _ 
5 | _ _ N _ _ _ _ _ 
4 | _ _ P _ _ _ _ P 
3 | P _ _ _ P _ _ _ 
2 | _ P _ P _ P P _ 
1 | R N B _ K B N R 
-------------------
  | A B C D E F G H 

Turn of: black
Succesful move
c5b3
8 | R _ B Q K B _ R 
7 | P P P P P P P P 
6 | _ _ _ N _ _ _ _ 
5 | _ _ _ _ _ _ _ _ 
4 | _ _ P _ _ _ _ P 
3 | P N _ _ P _ _ _ 
2 | _ P _ P _ P P _ 
1 | R N B _ K B N R 
-------------------
  | A B C D E F G H 

Turn of: white
Succesful move
f2f3
8 | R _ B Q K B _ R 
7 | P P P P P P P P 
6 | _ _ _ N _ _ _ _ 
5 | _ _ _ _ _ _ _ _ 
4 | _ _ P _ _ _ _ P 
3 | P N _ _ P P _ _ 
2 | _ P _ P _ _ P _ 
1 | R N B _ K B N R 
-------------------
  | A B C D E F G H 

Turn of: black
Succesful move
b3a1
8 | R _ B Q K B _ R 
7 | P P P P P P P P 
6 | _ _ _ N _ _ _ _ 
5 | _ _ _ _ _ _ _ _ 
4 | _ _ P _ _ _ _ P 
3 | P _ _ _ P P _ _ 
2 | _ P _ P _ _ P _ 
1 | N N B _ K B N R 
-------------------
  | A B C D E F G H 

Turn of: white
Succesful move
h1h3
8 | R _ B Q K B _ R 
7 | P P P P P P P P 
6 | _ _ _ N _ _ _ _ 
5 | _ _ _ _ _ _ _ _ 
4 | _ _ P _ _ _ _ P 
3 | P _ _ _ P P _ R 
2 | _ P _ P _ _ P _ 
1 | N N B _ K B N _ 
-------------------
  | A B C D E F G H 

Turn of: black
Succesful move
a1b3
8 | R _ B Q K B _ R 
7 | P P P P P P P P 
6 | _ _ _ N _ _ _ _ 
5 | _ _ _ _ _ _ _ _ 
4 | _ _ P _ _ _ _ P 
3 | P N _ _ P P _ R 
2 | _ P _ P _ _ P _ 
1 | _ N B _ K B N _ 
-------------------
  | A B C D E F G H 

We are playing as White
Move history:
c2c3
b8c6
c3c4
c6d4
e2e3
d4f5
d1a4
g8f6
a2a3
f6e4
a4b5
f5d6
b5c5
e4c5
h2h4
c5b3
f2f3
b3a1
h1h3
a1b3
8 | R _ B Q K B _ R 
7 | P P P P P P P P 
6 | _ _ _ N _ _ _ _ 
5 | _ _ _ _ _ _ _ _ 
4 | _ _ P _ _ _ _ P 
3 | P N _ _ P P _ R 
2 | _ P _ P _ _ P _ 
1 | _ N B _ K B N _ 
-------------------
  | A B C D E F G H 

It is white's turn to play.
AI's move: h4h5
Move written: h4h5
[32;1m[Game] [0mPlayer's error code: 0
[32;1m[Game] [0mChecking move validity...
[32;1m[Board] [0mInitializing board...
[32;1m[Board] [0mLoading history file `championship/lizzie-iii-blueherring/history.csv`...
[32;1m[Board] [0mLoaded 20 move(s).
[32;1m[Board] [0mLoading move file `championship/lizzie-iii-blueherring/move.csv`...
[32;1m[Board] [0mWhite player is playing h4 to h5.
[32;1m[Board] [0m
[32;1m[Board] [0m    a b c d e f g h 
[32;1m[Board] [0m  -------------------
[32;1m[Board] [0m8 ||[30;1mr[0m| |[30;1mb[0m|[30;1mQ[0m|[30;1mK[0m|[30;1mb[0m|[7;1m [0m|[30;1mr[0m|| 8
[32;1m[Board] [0m  -------------------
[32;1m[Board] [0m7 ||[30;1mp[0m|[30;1mp[0m|[30;1mp[0m|[30;1mp[0m|[30;1mp[0m|[30;1mp[0m|[30;1mp[0m|[30;1mp[0m|| 7
[32;1m[Board] [0m  -------------------
[32;1m[Board] [0m6 ||[7;1m [0m| |[7;1m [0m|[30;1mk[0m|[7;1m [0m| |[7;1m [0m| || 6
[32;1m[Board] [0m  -------------------
[32;1m[Board] [0m5 || |[7;1m [0m| |[7;1m [0m| |[7;1m [0m| |[0;1mp[0m|| 5
[32;1m[Board] [0m  -------------------
[32;1m[Board] [0m4 ||[7;1m [0m| |[0;1mp[0m| |[7;1m [0m| |[7;1m [0m| || 4
[32;1m[Board] [0m  -------------------
[32;1m[Board] [0m3 ||[0;1mp[0m|[30;1mk[0m| |[7;1m [0m|[0;1mp[0m|[0;1mp[0m| |[0;1mr[0m|| 3
[32;1m[Board] [0m  -------------------
[32;1m[Board] [0m2 ||[7;1m [0m|[0;1mp[0m|[7;1m [0m|[0;1mp[0m|[7;1m [0m| |[0;1mp[0m| || 2
[32;1m[Board] [0m  -------------------
[32;1m[Board] [0m1 || |[0;1mk[0m|[0;1mb[0m|[7;1m [0m|[0;1mK[0m|[0;1mb[0m|[0;1mk[0m|[7;1m [0m|| 1
[32;1m[Board] [0m  -------------------
[32;1m[Board] [0m    a b c d e f g h
[32;1m[Board] [0m
[32;1m[Referee] [0mThis is the turn of the Black player...
[32;1m[Game] [0mPlayer's error code: 0
[32;1m[Game] [0mChecking move validity...
[32;1m[Board] [0mInitializing board...
[32;1m[Board] [0mLoading history file `championship/lizzie-iii-blueherring/history.csv`...
[32;1m[Board] [0mLoaded 21 move(s).
[32;1m[Board] [0mLoading move file `championship/lizzie-iii-blueherring/move.csv`...
[32;1m[Board] [0mBlack player is playing b3 to c1.
[32;1m[Board] [0m[5;1mBlack Knight is taking White Bishop.[0m
[32;1m[Board] [0m
[32;1m[Board] [0m    a b c d e f g h 
[32;1m[Board] [0m  -------------------
[32;1m[Board] [0m8 ||[30;1mr[0m| |[30;1mb[0m|[30;1mQ[0m|[30;1mK[0m|[30;1mb[0m|[7;1m [0m|[30;1mr[0m|| 8
[32;1m[Board] [0m  -------------------
[32;1m[Board] [0m7 ||[30;1mp[0m|[30;1mp[0m|[30;1mp[0m|[30;1mp[0m|[30;1mp[0m|[30;1mp[0m|[30;1mp[0m|[30;1mp[0m|| 7
[32;1m[Board] [0m  -------------------
[32;1m[Board] [0m6 ||[7;1m [0m| |[7;1m [0m|[30;1mk[0m|[7;1m [0m| |[7;1m [0m| || 6
[32;1m[Board] [0m  -------------------
[32;1m[Board] [0m5 || |[7;1m [0m| |[7;1m [0m| |[7;1m [0m| |[0;1mp[0m|| 5
[32;1m[Board] [0m  -------------------
[32;1m[Board] [0m4 ||[7;1m [0m| |[0;1mp[0m| |[7;1m [0m| |[7;1m [0m| || 4
[32;1m[Board] [0m  -------------------
[32;1m[Board] [0m3 ||[0;1mp[0m|[7;1m [0m| |[7;1m [0m|[0;1mp[0m|[0;1mp[0m| |[0;1mr[0m|| 3
[32;1m[Board] [0m  -------------------
[32;1m[Board] [0m2 ||[7;1m [0m|[0;1mp[0m|[7;1m [0m|[0;1mp[0m|[7;1m [0m| |[0;1mp[0m| || 2
[32;1m[Board] [0m  -------------------
[32;1m[Board] [0m1 || |[0;1mk[0m|[30;1mk[0m|[7;1m [0m|[0;1mK[0m|[0;1mb[0m|[0;1mk[0m|[7;1m [0m|| 1
[32;1m[Board] [0m  -------------------
[32;1m[Board] [0m    a b c d e f g h
[32;1m[Board] [0m
[32;1m[Referee] [0mThis is the turn of the White player...
Input file: championship/lizzie-iii-blueherring/history.csv
Output file: championship/lizzie-iii-blueherring/move.csv
Turn of: white
Succesful move
c2c3
8 | R N B Q K B N R 
7 | P P P P P P P P 
6 | _ _ _ _ _ _ _ _ 
5 | _ _ _ _ _ _ _ _ 
4 | _ _ _ _ _ _ _ _ 
3 | _ _ P _ _ _ _ _ 
2 | P P _ P P P P P 
1 | R N B Q K B N R 
-------------------
  | A B C D E F G H 

Turn of: black
Succesful move
b8c6
8 | R _ B Q K B N R 
7 | P P P P P P P P 
6 | _ _ N _ _ _ _ _ 
5 | _ _ _ _ _ _ _ _ 
4 | _ _ _ _ _ _ _ _ 
3 | _ _ P _ _ _ _ _ 
2 | P P _ P P P P P 
1 | R N B Q K B N R 
-------------------
  | A B C D E F G H 

Turn of: white
Succesful move
c3c4
8 | R _ B Q K B N R 
7 | P P P P P P P P 
6 | _ _ N _ _ _ _ _ 
5 | _ _ _ _ _ _ _ _ 
4 | _ _ P _ _ _ _ _ 
3 | _ _ _ _ _ _ _ _ 
2 | P P _ P P P P P 
1 | R N B Q K B N R 
-------------------
  | A B C D E F G H 

Turn of: black
Succesful move
c6d4
8 | R _ B Q K B N R 
7 | P P P P P P P P 
6 | _ _ _ _ _ _ _ _ 
5 | _ _ _ _ _ _ _ _ 
4 | _ _ P N _ _ _ _ 
3 | _ _ _ _ _ _ _ _ 
2 | P P _ P P P P P 
1 | R N B Q K B N R 
-------------------
  | A B C D E F G H 

Turn of: white
Succesful move
e2e3
8 | R _ B Q K B N R 
7 | P P P P P P P P 
6 | _ _ _ _ _ _ _ _ 
5 | _ _ _ _ _ _ _ _ 
4 | _ _ P N _ _ _ _ 
3 | _ _ _ _ P _ _ _ 
2 | P P _ P _ P P P 
1 | R N B Q K B N R 
-------------------
  | A B C D E F G H 

Turn of: black
Succesful move
d4f5
8 | R _ B Q K B N R 
7 | P P P P P P P P 
6 | _ _ _ _ _ _ _ _ 
5 | _ _ _ _ _ N _ _ 
4 | _ _ P _ _ _ _ _ 
3 | _ _ _ _ P _ _ _ 
2 | P P _ P _ P P P 
1 | R N B Q K B N R 
-------------------
  | A B C D E F G H 

Turn of: white
Succesful move
d1a4
8 | R _ B Q K B N R 
7 | P P P P P P P P 
6 | _ _ _ _ _ _ _ _ 
5 | _ _ _ _ _ N _ _ 
4 | Q _ P _ _ _ _ _ 
3 | _ _ _ _ P _ _ _ 
2 | P P _ P _ P P P 
1 | R N B _ K B N R 
-------------------
  | A B C D E F G H 

Turn of: black
Succesful move
g8f6
8 | R _ B Q K B _ R 
7 | P P P P P P P P 
6 | _ _ _ _ _ N _ _ 
5 | _ _ _ _ _ N _ _ 
4 | Q _ P _ _ _ _ _ 
3 | _ _ _ _ P _ _ _ 
2 | P P _ P _ P P P 
1 | R N B _ K B N R 
-------------------
  | A B C D E F G H 

Turn of: white
Succesful move
a2a3
8 | R _ B Q K B _ R 
7 | P P P P P P P P 
6 | _ _ _ _ _ N _ _ 
5 | _ _ _ _ _ N _ _ 
4 | Q _ P _ _ _ _ _ 
3 | P _ _ _ P _ _ _ 
2 | _ P _ P _ P P P 
1 | R N B _ K B N R 
-------------------
  | A B C D E F G H 

Turn of: black
Succesful move
f6e4
8 | R _ B Q K B _ R 
7 | P P P P P P P P 
6 | _ _ _ _ _ _ _ _ 
5 | _ _ _ _ _ N _ _ 
4 | Q _ P _ N _ _ _ 
3 | P _ _ _ P _ _ _ 
2 | _ P _ P _ P P P 
1 | R N B _ K B N R 
-------------------
  | A B C D E F G H 

Turn of: white
Succesful move
a4b5
8 | R _ B Q K B _ R 
7 | P P P P P P P P 
6 | _ _ _ _ _ _ _ _ 
5 | _ Q _ _ _ N _ _ 
4 | _ _ P _ N _ _ _ 
3 | P _ _ _ P _ _ _ 
2 | _ P _ P _ P P P 
1 | R N B _ K B N R 
-------------------
  | A B C D E F G H 

Turn of: black
Succesful move
f5d6
8 | R _ B Q K B _ R 
7 | P P P P P P P P 
6 | _ _ _ N _ _ _ _ 
5 | _ Q _ _ _ _ _ _ 
4 | _ _ P _ N _ _ _ 
3 | P _ _ _ P _ _ _ 
2 | _ P _ P _ P P P 
1 | R N B _ K B N R 
-------------------
  | A B C D E F G H 

Turn of: white
Succesful move
b5c5
8 | R _ B Q K B _ R 
7 | P P P P P P P P 
6 | _ _ _ N _ _ _ _ 
5 | _ _ Q _ _ _ _ _ 
4 | _ _ P _ N _ _ _ 
3 | P _ _ _ P _ _ _ 
2 | _ P _ P _ P P P 
1 | R N B _ K B N R 
-------------------
  | A B C D E F G H 

Turn of: black
Succesful move
e4c5
8 | R _ B Q K B _ R 
7 | P P P P P P P P 
6 | _ _ _ N _ _ _ _ 
5 | _ _ N _ _ _ _ _ 
4 | _ _ P _ _ _ _ _ 
3 | P _ _ _ P _ _ _ 
2 | _ P _ P _ P P P 
1 | R N B _ K B N R 
-------------------
  | A B C D E F G H 

Turn of: white
Succesful move
h2h4
8 | R _ B Q K B _ R 
7 | P P P P P P P P 
6 | _ _ _ N _ _ _ _ 
5 | _ _ N _ _ _ _ _ 
4 | _ _ P _ _ _ _ P 
3 | P _ _ _ P _ _ _ 
2 | _ P _ P _ P P _ 
1 | R N B _ K B N R 
-------------------
  | A B C D E F G H 

Turn of: black
Succesful move
c5b3
8 | R _ B Q K B _ R 
7 | P P P P P P P P 
6 | _ _ _ N _ _ _ _ 
5 | _ _ _ _ _ _ _ _ 
4 | _ _ P _ _ _ _ P 
3 | P N _ _ P _ _ _ 
2 | _ P _ P _ P P _ 
1 | R N B _ K B N R 
-------------------
  | A B C D E F G H 

Turn of: white
Succesful move
f2f3
8 | R _ B Q K B _ R 
7 | P P P P P P P P 
6 | _ _ _ N _ _ _ _ 
5 | _ _ _ _ _ _ _ _ 
4 | _ _ P _ _ _ _ P 
3 | P N _ _ P P _ _ 
2 | _ P _ P _ _ P _ 
1 | R N B _ K B N R 
-------------------
  | A B C D E F G H 

Turn of: black
Succesful move
b3a1
8 | R _ B Q K B _ R 
7 | P P P P P P P P 
6 | _ _ _ N _ _ _ _ 
5 | _ _ _ _ _ _ _ _ 
4 | _ _ P _ _ _ _ P 
3 | P _ _ _ P P _ _ 
2 | _ P _ P _ _ P _ 
1 | N N B _ K B N R 
-------------------
  | A B C D E F G H 

Turn of: white
Succesful move
h1h3
8 | R _ B Q K B _ R 
7 | P P P P P P P P 
6 | _ _ _ N _ _ _ _ 
5 | _ _ _ _ _ _ _ _ 
4 | _ _ P _ _ _ _ P 
3 | P _ _ _ P P _ R 
2 | _ P _ P _ _ P _ 
1 | N N B _ K B N _ 
-------------------
  | A B C D E F G H 

Turn of: black
Succesful move
a1b3
8 | R _ B Q K B _ R 
7 | P P P P P P P P 
6 | _ _ _ N _ _ _ _ 
5 | _ _ _ _ _ _ _ _ 
4 | _ _ P _ _ _ _ P 
3 | P N _ _ P P _ R 
2 | _ P _ P _ _ P _ 
1 | _ N B _ K B N _ 
-------------------
  | A B C D E F G H 

Turn of: white
Succesful move
h4h5
8 | R _ B Q K B _ R 
7 | P P P P P P P P 
6 | _ _ _ N _ _ _ _ 
5 | _ _ _ _ _ _ _ P 
4 | _ _ P _ _ _ _ _ 
3 | P N _ _ P P _ R 
2 | _ P _ P _ _ P _ 
1 | _ N B _ K B N _ 
-------------------
  | A B C D E F G H 

Turn of: black
Succesful move
b3c1
8 | R _ B Q K B _ R 
7 | P P P P P P P P 
6 | _ _ _ N _ _ _ _ 
5 | _ _ _ _ _ _ _ P 
4 | _ _ P _ _ _ _ _ 
3 | P _ _ _ P P _ R 
2 | _ P _ P _ _ P _ 
1 | _ N N _ K B N _ 
-------------------
  | A B C D E F G H 

We are playing as White
Move history:
c2c3
b8c6
c3c4
c6d4
e2e3
d4f5
d1a4
g8f6
a2a3
f6e4
a4b5
f5d6
b5c5
e4c5
h2h4
c5b3
f2f3
b3a1
h1h3
a1b3
h4h5
b3c1
8 | R _ B Q K B _ R 
7 | P P P P P P P P 
6 | _ _ _ N _ _ _ _ 
5 | _ _ _ _ _ _ _ P 
4 | _ _ P _ _ _ _ _ 
3 | P _ _ _ P P _ R 
2 | _ P _ P _ _ P _ 
1 | _ N N _ K B N _ 
-------------------
  | A B C D E F G H 

It is white's turn to play.
AI's move: d2d3
Move written: d2d3
[32;1m[Game] [0mPlayer's error code: 0
[32;1m[Game] [0mChecking move validity...
[32;1m[Board] [0mInitializing board...
[32;1m[Board] [0mLoading history file `championship/lizzie-iii-blueherring/history.csv`...
[32;1m[Board] [0mLoaded 22 move(s).
[32;1m[Board] [0mLoading move file `championship/lizzie-iii-blueherring/move.csv`...
[32;1m[Board] [0mWhite player is playing d2 to d3.
[32;1m[Board] [0m
[32;1m[Board] [0m    a b c d e f g h 
[32;1m[Board] [0m  -------------------
[32;1m[Board] [0m8 ||[30;1mr[0m| |[30;1mb[0m|[30;1mQ[0m|[30;1mK[0m|[30;1mb[0m|[7;1m [0m|[30;1mr[0m|| 8
[32;1m[Board] [0m  -------------------
[...]
Input file: championship/lizzie-iii-blueherring/history.csv
Output file: championship/lizzie-iii-blueherring/move.csv
Turn of: white
Succesful move
c2c3
8 | R N B Q K B N R 
7 | P P P P P P P P 
6 | _ _ _ _ _ _ _ _ 
5 | _ _ _ _ _ _ _ _ 
4 | _ _ _ _ _ _ _ _ 
3 | _ _ P _ _ _ _ _ 
2 | P P _ P P P P P 
1 | R N B Q K B N R 
-------------------
  | A B C D E F G H 

Turn of: black
Succesful move
b8c6
8 | R _ B Q K B N R 
7 | P P P P P P P P 
6 | _ _ N _ _ _ _ _ 
5 | _ _ _ _ _ _ _ _ 
4 | _ _ _ _ _ _ _ _ 
3 | _ _ P _ _ _ _ _ 
2 | P P _ P P P P P 
1 | R N B Q K B N R 
-------------------
  | A B C D E F G H 

Turn of: white
Succesful move
c3c4
8 | R _ B Q K B N R 
7 | P P P P P P P P 
6 | _ _ N _ _ _ _ _ 
5 | _ _ _ _ _ _ _ _ 
4 | _ _ P _ _ _ _ _ 
3 | _ _ _ _ _ _ _ _ 
2 | P P _ P P P P P 
1 | R N B Q K B N R 
-------------------
  | A B C D E F G H 

Turn of: black
Succesful move
c6d4
8 | R _ B Q K B N R 
7 | P P P P P P P P 
6 | _ _ _ _ _ _ _ _ 
5 | _ _ _ _ _ _ _ _ 
4 | _ _ P N _ _ _ _ 
3 | _ _ _ _ _ _ _ _ 
2 | P P _ P P P P P 
1 | R N B Q K B N R 
-------------------
  | A B C D E F G H 

Turn of: white
Succesful move
e2e3
8 | R _ B Q K B N R 
7 | P P P P P P P P 
6 | _ _ _ _ _ _ _ _ 
5 | _ _ _ _ _ _ _ _ 
4 | _ _ P N _ _ _ _ 
3 | _ _ _ _ P _ _ _ 
2 | P P _ P _ P P P 
1 | R N B Q K B N R 
-------------------
  | A B C D E F G H 

Turn of: black
Succesful move
d4f5
8 | R _ B Q K B N R 
7 | P P P P P P P P 
6 | _ _ _ _ _ _ _ _ 
5 | _ _ _ _ _ N _ _ 
4 | _ _ P _ _ _ _ _ 
3 | _ _ _ _ P _ _ _ 
2 | P P _ P _ P P P 
1 | R N B Q K B N R 
-------------------
  | A B C D E F G H 

Turn of: white
Succesful move
d1a4
8 | R _ B Q K B N R 
7 | P P P P P P P P 
6 | _ _ _ _ _ _ _ _ 
5 | _ _ _ _ _ N _ _ 
4 | Q _ P _ _ _ _ _ 
3 | _ _ _ _ P _ _ _ 
2 | P P _ P _ P P P 
1 | R N B _ K B N R 
-------------------
  | A B C D E F G H 

Turn of: black
Succesful move
g8f6
8 | R _ B Q K B _ R 
7 | P P P P P P P P 
6 | _ _ _ _ _ N _ _ 
5 | _ _ _ _ _ N _ _ 
4 | Q _ P _ _ _ _ _ 
3 | _ _ _ _ P _ _ _ 
2 | P P _ P _ P P P 
1 | R N B _ K B N R 
-------------------
  | A B C D E F G H 

Turn of: white
Succesful move
a2a3
8 | R _ B Q K B _ R 
7 | P P P P P P P P 
6 | _ _ _ _ _ N _ _ 
5 | _ _ _ _ _ N _ _ 
4 | Q _ P _ _ _ _ _ 
3 | P _ _ _ P _ _ _ 
2 | _ P _ P _ P P P 
1 | R N B _ K B N R 
-------------------
  | A B C D E F G H 

Turn of: black
Succesful move
f6e4
8 | R _ B Q K B _ R 
7 | P P P P P P P P 
6 | _ _ _ _ _ _ _ _ 
5 | _ _ _ _ _ N _ _ 
4 | Q _ P _ N _ _ _ 
3 | P _ _ _ P _ _ _ 
2 | _ P _ P _ P P P 
1 | R N B _ K B N R 
-------------------
  | A B C D E F G H 

Turn of: white
Succesful move
a4b5
8 | R _ B Q K B _ R 
7 | P P P P P P P P 
6 | _ _ _ _ _ _ _ _ 
5 | _ Q _ _ _ N _ _ 
4 | _ _ P _ N _ _ _ 
3 | P _ _ _ P _ _ _ 
2 | _ P _ P _ P P P 
1 | R N B _ K B N R 
-------------------
  | A B C D E F G H 

Turn of: black
Succesful move
f5d6
8 | R _ B Q K B _ R 
7 | P P P P P P P P 
6 | _ _ _ N _ _ _ _ 
5 | _ Q _ _ _ _ _ _ 
4 | _ _ P _ N _ _ _ 
3 | P _ _ _ P _ _ _ 
2 | _ P _ P _ P P P 
1 | R N B _ K B N R 
-------------------
  | A B C D E F G H 

Turn of: white
Succesful move
b5c5
8 | R _ B Q K B _ R 
7 | P P P P P P P P 
6 | _ _ _ N _ _ _ _ 
5 | _ _ Q _ _ _ _ _ 
4 | _ _ P _ N _ _ _ 
3 | P _ _ _ P _ _ _ 
2 | _ P _ P _ P P P 
1 | R N B _ K B N R 
-------------------
  | A B C D E F G H 

Turn of: black
Succesful move
e4c5
8 | R _ B Q K B _ R 
7 | P P P P P P P P 
6 | _ _ _ N _ _ _ _ 
5 | _ _ N _ _ _ _ _ 
4 | _ _ P _ _ _ _ _ 
3 | P _ _ _ P _ _ _ 
2 | _ P _ P _ P P P 
1 | R N B _ K B N R 
-------------------
  | A B C D E F G H 

Turn of: white
Succesful move
h2h4
8 | R _ B Q K B _ R 
7 | P P P P P P P P 
6 | _ _ _ N _ _ _ _ 
5 | _ _ N _ _ _ _ _ 
4 | _ _ P _ _ _ _ P 
3 | P _ _ _ P _ _ _ 
2 | _ P _ P _ P P _ 
1 | R N B _ K B N R 
-------------------
  | A B C D E F G H 

Turn of: black
Succesful move
c5b3
8 | R _ B Q K B _ R 
7 | P P P P P P P P 
6 | _ _ _ N _ _ _ _ 
5 | _ _ _ _ _ _ _ _ 
4 | _ _ P _ _ _ _ P 
3 | P N _ _ P _ _ _ 
2 | _ P _ P _ P P _ 
1 | R N B _ K B N R 
-------------------
  | A B C D E F G H 

Turn of: white
Succesful move
f2f3
8 | R _ B Q K B _ R 
7 | P P P P P P P P 
6 | _ _ _ N _ _ _ _ 
5 | _ _ _ _ _ _ _ _ 
4 | _ _ P _ _ _ _ P 
3 | P N _ _ P P _ _ 
2 | _ P _ P _ _ P _ 
1 | R N B _ K B N R 
-------------------
  | A B C D E F G H 

Turn of: black
Succesful move
b3a1
8 | R _ B Q K B _ R 
7 | P P P P P P P P 
6 | _ _ _ N _ _ _ _ 
5 | _ _ _ _ _ _ _ _ 
4 | _ _ P _ _ _ _ P 
3 | P _ _ _ P P _ _ 
2 | _ P _ P _ _ P _ 
1 | N N B _ K B N R 
-------------------
  | A B C D E F G H 

Turn of: white
Succesful move
h1h3
8 | R _ B Q K B _ R 
7 | P P P P P P P P 
6 | _ _ _ N _ _ _ _ 
5 | _ _ _ _ _ _ _ _ 
4 | _ _ P _ _ _ _ P 
3 | P _ _ _ P P _ R 
2 | _ P _ P _ _ P _ 
1 | N N B _ K B N _ 
-------------------
  | A B C D E F G H 

Turn of: black
Succesful move
a1b3
8 | R _ B Q K B _ R 
7 | P P P P P P P P 
6 | _ _ _ N _ _ _ _ 
5 | _ _ _ _ _ _ _ _ 
4 | _ _ P _ _ _ _ P 
3 | P N _ _ P P _ R 
2 | _ P _ P _ _ P _ 
1 | _ N B _ K B N _ 
-------------------
  | A B C D E F G H 

Turn of: white
Succesful move
h4h5
8 | R _ B Q K B _ R 
7 | P P P P P P P P 
6 | _ _ _ N _ _ _ _ 
5 | _ _ _ _ _ _ _ P 
4 | _ _ P _ _ _ _ _ 
3 | P N _ _ P P _ R 
2 | _ P _ P _ _ P _ 
1 | _ N B _ K B N _ 
-------------------
  | A B C D E F G H 

Turn of: black
Succesful move
b3c1
8 | R _ B Q K B _ R 
7 | P P P P P P P P 
6 | _ _ _ N _ _ _ _ 
5 | _ _ _ _ _ _ _ P 
4 | _ _ P _ _ _ _ _ 
3 | P _ _ _ P P _ R 
2 | _ P _ P _ _ P _ 
1 | _ N N _ K B N _ 
-------------------
  | A B C D E F G H 

Turn of: white
Succesful move
d2d3
8 | R _ B Q K B _ R 
7 | P P P P P P P P 
6 | _ _ _ N _ _ _ _ 
5 | _ _ _ _ _ _ _ P 
4 | _ _ P _ _ _ _ _ 
3 | P _ _ P P P _ R 
2 | _ P _ _ _ _ P _ 
1 | _ N N _ K B N _ 
-------------------
  | A B C D E F G H 

Turn of: black
Succesful move
d6f5
8 | R _ B Q K B _ R 
7 | P P P P P P P P 
6 | _ _ _ _ _ _ _ _ 
5 | _ _ _ _ _ N _ P 
4 | _ _ P _ _ _ _ _ 
3 | P _ _ P P P _ R 
2 | _ P _ _ _ _ P _ 
1 | _ N N _ K B N _ 
-------------------
  | A B C D E F G H 

Turn of: white
Succesful move
e1f2
8 | R _ B Q K B _ R 
7 | P P P P P P P P 
6 | _ _ _ _ _ _ _ _ 
5 | _ _ _ _ _ N _ P 
4 | _ _ P _ _ _ _ _ 
3 | P _ _ P P P _ R 
2 | _ P _ _ _ K P _ 
1 | _ N N _ _ B N _ 
-------------------
  | A B C D E F G H 

Turn of: black
Succesful move
a8b8
8 | _ R B Q K B _ R 
7 | P P P P P P P P 
6 | _ _ _ _ _ _ _ _ 
5 | _ _ _ _ _ N _ P 
4 | _ _ P _ _ _ _ _ 
3 | P _ _ P P P _ R 
2 | _ P _ _ _ K P _ 
1 | _ N N _ _ B N _ 
-------------------
  | A B C D E F G H 

Turn of: white
Succesful move
g1e2
8 | _ R B Q K B _ R 
7 | P P P P P P P P 
6 | _ _ _ _ _ _ _ _ 
5 | _ _ _ _ _ N _ P 
4 | _ _ P _ _ _ _ _ 
3 | P _ _ P P P _ R 
2 | _ P _ _ N K P _ 
1 | _ N N _ _ B _ _ 
-------------------
  | A B C D E F G H 

Turn of: black
Succesful move
c1d3
8 | _ R B Q K B _ R 
7 | P P P P P P P P 
6 | _ _ _ _ _ _ _ _ 
5 | _ _ _ _ _ N _ P 
4 | _ _ P _ _ _ _ _ 
3 | P _ _ N P P _ R 
2 | _ P _ _ N K P _ 
1 | _ N _ _ _ B _ _ 
-------------------
  | A B C D E F G H 

Turn of: white
Succesful move
f2g1
8 | _ R B Q K B _ R 
7 | P P P P P P P P 
6 | _ _ _ _ _ _ _ _ 
5 | _ _ _ _ _ N _ P 
4 | _ _ P _ _ _ _ _ 
3 | P _ _ N P P _ R 
2 | _ P _ _ N _ P _ 
1 | _ N _ _ _ B K _ 
-------------------
  | A B C D E F G H 

Turn of: black
Succesful move
f5e3
8 | _ R B Q K B _ R 
7 | P P P P P P P P 
6 | _ _ _ _ _ _ _ _ 
5 | _ _ _ _ _ _ _ P 
4 | _ _ P _ _ _ _ _ 
3 | P _ _ N N P _ R 
2 | _ P _ _ N _ P _ 
1 | _ N _ _ _ B K _ 
-------------------
  | A B C D E F G H 

Turn of: white
Succesful move
h3h2
8 | _ R B Q K B _ R 
7 | P P P P P P P P 
6 | _ _ _ _ _ _ _ _ 
5 | _ _ _ _ _ _ _ P 
4 | _ _ P _ _ _ _ _ 
3 | P _ _ N N P _ _ 
2 | _ P _ _ N _ P R 
1 | _ N _ _ _ B K _ 
-------------------
  | A B C D E F G H 

Turn of: black
Succesful move
d3b2
8 | _ R B Q K B _ R 
7 | P P P P P P P P 
6 | _ _ _ _ _ _ _ _ 
5 | _ _ _ _ _ _ _ P 
4 | _ _ P _ _ _ _ _ 
3 | P _ _ _ N P _ _ 
2 | _ N _ _ N _ P R 
1 | _ N _ _ _ B K _ 
-------------------
  | A B C D E F G H 

Turn of: white
Succesful move
e2c1
8 | _ R B Q K B _ R 
7 | P P P P P P P P 
6 | _ _ _ _ _ _ _ _ 
5 | _ _ _ _ _ _ _ P 
4 | _ _ P _ _ _ _ _ 
3 | P _ _ _ N P _ _ 
2 | _ N _ _ _ _ P R 
1 | _ N N _ _ B K _ 
-------------------
  | A B C D E F G H 

Turn of: black
Succesful move
b8a8
8 | R _ B Q K B _ R 
7 | P P P P P P P P 
6 | _ _ _ _ _ _ _ _ 
5 | _ _ _ _ _ _ _ P 
4 | _ _ P _ _ _ _ _ 
3 | P _ _ _ N P _ _ 
2 | _ N _ _ _ _ P R 
1 | _ N N _ _ B K _ 
-------------------
  | A B C D E F G H 

Turn of: white
Succesful move
c1a2
8 | R _ B Q K B _ R 
7 | P P P P P P P P 
6 | _ _ _ _ _ _ _ _ 
5 | _ _ _ _ _ _ _ P 
4 | _ _ P _ _ _ _ _ 
3 | P _ _ _ N P _ _ 
2 | N N _ _ _ _ P R 
1 | _ N _ _ _ B K _ 
-------------------
  | A B C D E F G H 

Turn of: black
Succesful move
a8b8
8 | _ R B Q K B _ R 
7 | P P P P P P P P 
6 | _ _ _ _ _ _ _ _ 
5 | _ _ _ _ _ _ _ P 
4 | _ _ P _ _ _ _ _ 
3 | P _ _ _ N P _ _ 
2 | N N _ _ _ _ P R 
1 | _ N _ _ _ B K _ 
-------------------
  | A B C D E F G H 

Turn of: white
Succesful move
a3a4
8 | _ R B Q K B _ R 
7 | P P P P P P P P 
6 | _ _ _ _ _ _ _ _ 
5 | _ _ _ _ _ _ _ P 
4 | P _ P _ _ _ _ _ 
3 | _ _ _ _ N P _ _ 
2 | N N _ _ _ _ P R 
1 | _ N _ _ _ B K _ 
-------------------
  | A B C D E F G H 

Turn of: black
Succesful move
b2a4
8 | _ R B Q K B _ R 
7 | P P P P P P P P 
6 | _ _ _ _ _ _ _ _ 
5 | _ _ _ _ _ _ _ P 
4 | N _ P _ _ _ _ _ 
3 | _ _ _ _ N P _ _ 
2 | N _ _ _ _ _ P R 
1 | _ N _ _ _ B K _ 
-------------------
  | A B C D E F G H 

Turn of: white
Succesful move
b1a3
8 | _ R B Q K B _ R 
7 | P P P P P P P P 
6 | _ _ _ _ _ _ _ _ 
5 | _ _ _ _ _ _ _ P 
4 | N _ P _ _ _ _ _ 
3 | N _ _ _ N P _ _ 
2 | N _ _ _ _ _ P R 
1 | _ _ _ _ _ B K _ 
-------------------
  | A B C D E F G H 

Turn of: black
Succesful move
e7e6
8 | _ R B Q K B _ R 
7 | P P P P _ P P P 
6 | _ _ _ _ P _ _ _ 
5 | _ _ _ _ _ _ _ P 
4 | N _ P _ _ _ _ _ 
3 | N _ _ _ N P _ _ 
2 | N _ _ _ _ _ P R 
1 | _ _ _ _ _ B K _ 
-------------------
  | A B C D E F G H 

Turn of: white
Succesful move
f3f4
8 | _ R B Q K B _ R 
7 | P P P P _ P P P 
6 | _ _ _ _ P _ _ _ 
5 | _ _ _ _ _ _ _ P 
4 | N _ P _ _ P _ _ 
3 | N _ _ _ N _ _ _ 
2 | N _ _ _ _ _ P R 
1 | _ _ _ _ _ B K _ 
-------------------
  | A B C D E F G H 

Turn of: black
Succesful move
f8a3
8 | _ R B Q K _ _ R 
7 | P P P P _ P P P 
6 | _ _ _ _ P _ _ _ 
5 | _ _ _ _ _ _ _ P 
4 | N _ P _ _ P _ _ 
3 | B _ _ _ N _ _ _ 
2 | N _ _ _ _ _ P R 
1 | _ _ _ _ _ B K _ 
-------------------
  | A B C D E F G H 

Turn of: white
Succesful move
a2c1
8 | _ R B Q K _ _ R 
7 | P P P P _ P P P 
6 | _ _ _ _ P _ _ _ 
5 | _ _ _ _ _ _ _ P 
4 | N _ P _ _ P _ _ 
3 | B _ _ _ N _ _ _ 
2 | _ _ _ _ _ _ P R 
1 | _ _ N _ _ B K _ 
-------------------
  | A B C D E F G H 

Turn of: black
Succesful move
a3c1
8 | _ R B Q K _ _ R 
7 | P P P P _ P P P 
6 | _ _ _ _ P _ _ _ 
5 | _ _ _ _ _ _ _ P 
4 | N _ P _ _ P _ _ 
3 | _ _ _ _ N _ _ _ 
2 | _ _ _ _ _ _ P R 
1 | _ _ B _ _ B K _ 
-------------------
  | A B C D E F G H 

Turn of: white
Succesful move
c4c5
8 | _ R B Q K _ _ R 
7 | P P P P _ P P P 
6 | _ _ _ _ P _ _ _ 
5 | _ _ P _ _ _ _ P 
4 | N _ _ _ _ P _ _ 
3 | _ _ _ _ N _ _ _ 
2 | _ _ _ _ _ _ P R 
1 | _ _ B _ _ B K _ 
-------------------
  | A B C D E F G H 

Turn of: black
Succesful move
a4c5
8 | _ R B Q K _ _ R 
7 | P P P P _ P P P 
6 | _ _ _ _ P _ _ _ 
5 | _ _ N _ _ _ _ P 
4 | _ _ _ _ _ P _ _ 
3 | _ _ _ _ N _ _ _ 
2 | _ _ _ _ _ _ P R 
1 | _ _ B _ _ B K _ 
-------------------
  | A B C D E F G H 

Turn of: white
Succesful move
f1d3
8 | _ R B Q K _ _ R 
7 | P P P P _ P P P 
6 | _ _ _ _ P _ _ _ 
5 | _ _ N _ _ _ _ P 
4 | _ _ _ _ _ P _ _ 
3 | _ _ _ B N _ _ _ 
2 | _ _ _ _ _ _ P R 
1 | _ _ B _ _ _ K _ 
-------------------
  | A B C D E F G H 

Turn of: black
Succesful move
c5d3
8 | _ R B Q K _ _ R 
7 | P P P P _ P P P 
6 | _ _ _ _ P _ _ _ 
5 | _ _ _ _ _ _ _ P 
4 | _ _ _ _ _ P _ _ 
3 | _ _ _ N N _ _ _ 
2 | _ _ _ _ _ _ P R 
1 | _ _ B _ _ _ K _ 
-------------------
  | A B C D E F G H 

Turn of: white
Succesful move
h5h6
8 | _ R B Q K _ _ R 
7 | P P P P _ P P P 
6 | _ _ _ _ P _ _ P 
5 | _ _ _ _ _ _ _ _ 
4 | _ _ _ _ _ P _ _ 
3 | _ _ _ N N _ _ _ 
2 | _ _ _ _ _ _ P R 
1 | _ _ B _ _ _ K _ 
-------------------
  | A B C D E F G H 

Turn of: black
Succesful move
e3g4
8 | _ R B Q K _ _ R 
7 | P P P P _ P P P 
6 | _ _ _ _ P _ _ P 
5 | _ _ _ _ _ _ _ _ 
4 | _ _ _ _ _ P N _ 
3 | _ _ _ N _ _ _ _ 
2 | _ _ _ _ _ _ P R 
1 | _ _ B _ _ _ K _ 
-------------------
  | A B C D E F G H 

Turn of: white
Succesful move
g1h1
8 | _ R B Q K _ _ R 
7 | P P P P _ P P P 
6 | _ _ _ _ P _ _ P 
5 | _ _ _ _ _ _ _ _ 
4 | _ _ _ _ _ P N _ 
3 | _ _ _ N _ _ _ _ 
2 | _ _ _ _ _ _ P R 
1 | _ _ B _ _ _ _ K 
-------------------
  | A B C D E F G H 

Turn of: black
Succesful move
d3f2
8 | _ R B Q K _ _ R 
7 | P P P P _ P P P 
6 | _ _ _ _ P _ _ P 
5 | _ _ _ _ _ _ _ _ 
4 | _ _ _ _ _ P N _ 
3 | _ _ _ _ _ _ _ _ 
2 | _ _ _ _ _ N P R 
1 | _ _ B _ _ _ _ K 
-------------------
  | A B C D E F G H 

Turn of: white
Succesful move
h1g1
8 | _ R B Q K _ _ R 
7 | P P P P _ P P P 
6 | _ _ _ _ P _ _ P 
5 | _ _ _ _ _ _ _ _ 
4 | _ _ _ _ _ P N _ 
3 | _ _ _ _ _ _ _ _ 
2 | _ _ _ _ _ N P R 
1 | _ _ B _ _ _ K _ 
-------------------
  | A B C D E F G H 

Turn of: black
Succesful move
g7g6
8 | _ R B Q K _ _ R 
7 | P P P P _ P _ P 
6 | _ _ _ _ P _ P P 
5 | _ _ _ _ _ _ _ _ 
4 | _ _ _ _ _ P N _ 
3 | _ _ _ _ _ _ _ _ 
2 | _ _ _ _ _ N P R 
1 | _ _ B _ _ _ K _ 
-------------------
  | A B C D E F G H 

Turn of: white
Succesful move
g1f1
8 | _ R B Q K _ _ R 
7 | P P P P _ P _ P 
6 | _ _ _ _ P _ P P 
5 | _ _ _ _ _ _ _ _ 
4 | _ _ _ _ _ P N _ 
3 | _ _ _ _ _ _ _ _ 
2 | _ _ _ _ _ N P R 
1 | _ _ B _ _ K _ _ 
-------------------
  | A B C D E F G H 

Turn of: black
Succesful move
c1f4
8 | _ R B Q K _ _ R 
7 | P P P P _ P _ P 
6 | _ _ _ _ P _ P P 
5 | _ _ _ _ _ _ _ _ 
4 | _ _ _ _ _ B N _ 
3 | _ _ _ _ _ _ _ _ 
2 | _ _ _ _ _ N P R 
1 | _ _ _ _ _ K _ _ 
-------------------
  | A B C D E F G H 

Turn of: white
Succesful move
f1e2
8 | _ R B Q K _ _ R 
7 | P P P P _ P _ P 
6 | _ _ _ _ P _ P P 
5 | _ _ _ _ _ _ _ _ 
4 | _ _ _ _ _ B N _ 
3 | _ _ _ _ _ _ _ _ 
2 | _ _ _ _ K N P R 
1 | _ _ _ _ _ _ _ _ 
-------------------
  | A B C D E F G H 

Turn of: black
Succesful move
f4h2
8 | _ R B Q K _ _ R 
7 | P P P P _ P _ P 
6 | _ _ _ _ P _ P P 
5 | _ _ _ _ _ _ _ _ 
4 | _ _ _ _ _ _ N _ 
3 | _ _ _ _ _ _ _ _ 
2 | _ _ _ _ K N P B 
1 | _ _ _ _ _ _ _ _ 
-------------------
  | A B C D E F G H 

Turn of: white
Succesful move
e2f1
8 | _ R B Q K _ _ R 
7 | P P P P _ P _ P 
6 | _ _ _ _ P _ P P 
5 | _ _ _ _ _ _ _ _ 
4 | _ _ _ _ _ _ N _ 
3 | _ _ _ _ _ _ _ _ 
2 | _ _ _ _ _ N P B 
1 | _ _ _ _ _ K _ _ 
-------------------
  | A B C D E F G H 

Turn of: black
Succesful move
d8g5
8 | _ R B _ K _ _ R 
7 | P P P P _ P _ P 
6 | _ _ _ _ P _ P P 
5 | _ _ _ _ _ _ Q _ 
4 | _ _ _ _ _ _ N _ 
3 | _ _ _ _ _ _ _ _ 
2 | _ _ _ _ _ N P B 
1 | _ _ _ _ _ K _ _ 
-------------------
  | A B C D E F G H 

Turn of: white
Succesful move
g2g3
8 | _ R B _ K _ _ R 
7 | P P P P _ P _ P 
6 | _ _ _ _ P _ P P 
5 | _ _ _ _ _ _ Q _ 
4 | _ _ _ _ _ _ N _ 
3 | _ _ _ _ _ _ P _ 
2 | _ _ _ _ _ N _ B 
1 | _ _ _ _ _ K _ _ 
-------------------
  | A B C D E F G H 

Turn of: black
Succesful move
g5h6
8 | _ R B _ K _ _ R 
7 | P P P P _ P _ P 
6 | _ _ _ _ P _ P Q 
5 | _ _ _ _ _ _ _ _ 
4 | _ _ _ _ _ _ N _ 
3 | _ _ _ _ _ _ P _ 
2 | _ _ _ _ _ N _ B 
1 | _ _ _ _ _ K _ _ 
-------------------
  | A B C D E F G H 

Turn of: white
Succesful move
f1g2
8 | _ R B _ K _ _ R 
7 | P P P P _ P _ P 
6 | _ _ _ _ P _ P Q 
5 | _ _ _ _ _ _ _ _ 
4 | _ _ _ _ _ _ N _ 
3 | _ _ _ _ _ _ P _ 
2 | _ _ _ _ _ N K B 
1 | _ _ _ _ _ _ _ _ 
-------------------
  | A B C D E F G H 

Turn of: black
Succesful move
h6e3
8 | _ R B _ K _ _ R 
7 | P P P P _ P _ P 
6 | _ _ _ _ P _ P _ 
5 | _ _ _ _ _ _ _ _ 
4 | _ _ _ _ _ _ N _ 
3 | _ _ _ _ Q _ P _ 
2 | _ _ _ _ _ N K B 
1 | _ _ _ _ _ _ _ _ 
-------------------
  | A B C D E F G H 

We are playing as White
Move history:
c2c3
b8c6
c3c4
c6d4
e2e3
d4f5
d1a4
g8f6
a2a3
f6e4
a4b5
f5d6
b5c5
e4c5
h2h4
c5b3
f2f3
b3a1
h1h3
a1b3
h4h5
b3c1
d2d3
d6f5
e1f2
a8b8
g1e2
c1d3
f2g1
f5e3
h3h2
d3b2
e2c1
b8a8
c1a2
a8b8
a3a4
b2a4
b1a3
e7e6
f3f4
f8a3
a2c1
a3c1
c4c5
a4c5
f1d3
c5d3
h5h6
e3g4
g1h1
d3f2
h1g1
g7g6
g1f1
c1f4
f1e2
f4h2
e2f1
d8g5
g2g3
g5h6
f1g2
h6e3
8 | _ R B _ K _ _ R 
7 | P P P P _ P _ P 
6 | _ _ _ _ P _ P _ 
5 | _ _ _ _ _ _ _ _ 
4 | _ _ _ _ _ _ N _ 
3 | _ _ _ _ Q _ P _ 
2 | _ _ _ _ _ N K B 
1 | _ _ _ _ _ _ _ _ 
-------------------
  | A B C D E F G H 

It is white's turn to play.
AI's move: g2f1
Move written: g2f1
[32;1m[Game] [0mPlayer's error code: 0
[32;1m[Game] [0mChecking move validity...
[32;1m[Board] [0mInitializing board...
[32;1m[Board] [0mLoading history file `championship/lizzie-iii-blueherring/history.csv`...
[32;1m[Board] [0mLoaded 64 move(s).
[32;1m[Board] [0mLoading move file `championship/lizzie-iii-blueherring/move.csv`...
[32;1m[Board] [0mWhite player is playing g2 to f1.
[32;1m[Board] [0m
[32;1m[Board] [0m    a b c d e f g h 
[32;1m[Board] [0m  -------------------
[32;1m[Board] [0m8 ||[7;1m [0m|[30;1mr[0m|[30;1mb[0m| |[30;1mK[0m| |[7;1m [0m|[30;1mr[0m|| 8
[32;1m[Board] [0m  -------------------
[32;1m[Board] [0m7 ||[30;1mp[0m|[30;1mp[0m|[30;1mp[0m|[30;1mp[0m| |[30;1mp[0m| |[30;1mp[0m|| 7
[32;1m[Board] [0m  -------------------
[32;1m[Board] [0m6 ||[7;1m [0m| |[7;1m [0m| |[30;1mp[0m| |[30;1mp[0m| || 6
[32;1m[Board] [0m  -------------------
[32;1m[Board] [0m5 || |[7;1m [0m| |[7;1m [0m| |[7;1m [0m| |[7;1m [0m|| 5
[32;1m[Board] [0m  -------------------
[32;1m[Board] [0m4 ||[7;1m [0m| |[7;1m [0m| |[7;1m [0m| |[30;1mk[0m| || 4
[32;1m[Board] [0m  -------------------
[32;1m[Board] [0m3 || |[7;1m [0m| |[7;1m [0m|[30;1mQ[0m|[7;1m [0m|[0;1mp[0m|[7;1m [0m|| 3
[32;1m[Board] [0m  -------------------
[32;1m[Board] [0m2 ||[7;1m [0m| |[7;1m [0m| |[7;1m [0m|[30;1mk[0m|[7;1m [0m|[30;1mb[0m|| 2
[32;1m[Board] [0m  -------------------
[32;1m[Board] [0m1 || |[7;1m [0m| |[7;1m [0m| |[0;1mK[0m| |[7;1m [0m|| 1
[32;1m[Board] [0m  -------------------
[32;1m[Board] [0m    a b c d e f g h
[32;1m[Board] [0m
[32;1m[Referee] [0mThis is the turn of the Black player...
[32;1m[Game] [0mPlayer's error code: 0
[32;1m[Game] [0mChecking move validity...
[32;1m[Board] [0mInitializing board...
[32;1m[Board] [0mLoading history file `championship/lizzie-iii-blueherring/history.csv`...
[32;1m[Board] [0mLoaded 65 move(s).
[32;1m[Board] [0mLoading move file `championship/lizzie-iii-blueherring/move.csv`...
[32;1m[Board] [0mBlack player is playing e3 to e4.
[32;1m[Board] [0m
[32;1m[Board] [0m    a b c d e f g h 
[32;1m[Board] [0m  -------------------
[32;1m[Board] [0m8 ||[7;1m [0m|[30;1mr[0m|[30;1mb[0m| |[30;1mK[0m| |[7;1m [0m|[30;1mr[0m|| 8
[32;1m[Board] [0m  -------------------
[32;1m[Board] [0m7 ||[30;1mp[0m|[30;1mp[0m|[30;1mp[0m|[30;1mp[0m| |[30;1mp[0m| |[30;1mp[0m|| 7
[32;1m[Board] [0m  -------------------
[32;1m[Board] [0m6 ||[7;1m [0m| |[7;1m [0m| |[30;1mp[0m| |[30;1mp[0m| || 6
[32;1m[Board] [0m  -------------------
[32;1m[Board] [0m5 || |[7;1m [0m| |[7;1m [0m| |[7;1m [0m| |[7;1m [0m|| 5
[32;1m[Board] [0m  -------------------
[32;1m[Board] [0m4 ||[7;1m [0m| |[7;1m [0m| |[30;1mQ[0m| |[30;1mk[0m| || 4
[32;1m[Board] [0m  -------------------
[32;1m[Board] [0m3 || |[7;1m [0m| |[7;1m [0m| |[7;1m [0m|[0;1mp[0m|[7;1m [0m|| 3
[32;1m[Board] [0m  -------------------
[32;1m[Board] [0m2 ||[7;1m [0m| |[7;1m [0m| |[7;1m [0m|[30;1mk[0m|[7;1m [0m|[30;1mb[0m|| 2
[32;1m[Board] [0m  -------------------
[32;1m[Board] [0m1 || |[7;1m [0m| |[7;1m [0m| |[0;1mK[0m| |[7;1m [0m|| 1
[32;1m[Board] [0m  -------------------
[32;1m[Board] [0m    a b c d e f g h
[32;1m[Board] [0m
[32;1m[Referee] [0mThis is the turn of the White player...
[32;1m[Board] [0m[33;1m[WARNING][0m [5;1mWhite player is stalemate![0m
[32;1m[Board] [0m[33;1m[WARNING][0m Draw! Game over.
