[32;1m[Board] [0mInitializing board...
[32;1m[Board] [0m
[32;1m[Board] [0m    a b c d e f g h 
[32;1m[Board] [0m  -------------------
[32;1m[Board] [0m8 ||[30;1mr[0m|[30;1mk[0m|[30;1mb[0m|[30;1mQ[0m|[30;1mK[0m|[30;1mb[0m|[30;1mk[0m|[30;1mr[0m|| 8
[32;1m[Board] [0m  -------------------
[32;1m[Board] [0m7 ||[30;1mp[0m|[30;1mp[0m|[30;1mp[0m|[30;1mp[0m|[30;1mp[0m|[30;1mp[0m|[30;1mp[0m|[30;1mp[0m|| 7
[32;1m[Board] [0m  -------------------
[32;1m[Board] [0m6 ||[7;1m [0m| |[7;1m [0m| |[7;1m [0m| |[7;1m [0m| || 6
[32;1m[Board] [0m  -------------------
[32;1m[Board] [0m5 || |[7;1m [0m| |[7;1m [0m| |[7;1m [0m| |[7;1m [0m|| 5
[32;1m[Board] [0m  -------------------
[32;1m[Board] [0m4 ||[7;1m [0m| |[7;1m [0m| |[7;1m [0m| |[7;1m [0m| || 4
[32;1m[Board] [0m  -------------------
[32;1m[Board] [0m3 || |[7;1m [0m| |[7;1m [0m| |[7;1m [0m| |[7;1m [0m|| 3
[32;1m[Board] [0m  -------------------
[32;1m[Board] [0m2 ||[0;1mp[0m|[0;1mp[0m|[0;1mp[0m|[0;1mp[0m|[0;1mp[0m|[0;1mp[0m|[0;1mp[0m|[0;1mp[0m|| 2
[32;1m[Board] [0m  -------------------
[32;1m[Board] [0m1 ||[0;1mr[0m|[0;1mk[0m|[0;1mb[0m|[0;1mQ[0m|[0;1mK[0m|[0;1mb[0m|[0;1mk[0m|[0;1mr[0m|| 1
[32;1m[Board] [0m  -------------------
[32;1m[Board] [0m    a b c d e f g h
[32;1m[Board] [0m
[32;1m[Referee] [0mThis is the turn of the White player...
Input file: championship/lizzie-iii-chess-ai/history.csv
Output file: championship/lizzie-iii-chess-ai/move.csv
We are playing as White
8 | [1;31mR[0m [1;31mN[0m [1;31mB[0m [1;31mQ[0m [1;31mK[0m [1;31mB[0m [1;31mN[0m [1;31mR[0m 
7 | [1;31mP[0m [1;31mP[0m [1;31mP[0m [1;31mP[0m [1;31mP[0m [1;31mP[0m [1;31mP[0m [1;31mP[0m 
6 | [1;30m_[0m [1;30m_[0m [1;30m_[0m [1;30m_[0m [1;30m_[0m [1;30m_[0m [1;30m_[0m [1;30m_[0m 
5 | [1;30m_[0m [1;30m_[0m [1;30m_[0m [1;30m_[0m [1;30m_[0m [1;30m_[0m [1;30m_[0m [1;30m_[0m 
4 | [1;30m_[0m [1;30m_[0m [1;30m_[0m [1;30m_[0m [1;30m_[0m [1;30m_[0m [1;30m_[0m [1;30m_[0m 
3 | [1;30m_[0m [1;30m_[0m [1;30m_[0m [1;30m_[0m [1;30m_[0m [1;30m_[0m [1;30m_[0m [1;30m_[0m 
2 | [1;32mP[0m [1;32mP[0m [1;32mP[0m [1;32mP[0m [1;32mP[0m [1;32mP[0m [1;32mP[0m [1;32mP[0m 
1 | [1;32mR[0m [1;32mN[0m [1;32mB[0m [1;32mQ[0m [1;32mK[0m [1;32mB[0m [1;32mN[0m [1;32mR[0m 
-------------------
  | A B C D E F G H 

It is white's turn to play.
Best move: e2e4
Evaluation: 90
Node count: 25077

Total time: 689.124 ms
[32;1m[Game] [0mPlayer's error code: 0
[32;1m[Game] [0mChecking move validity...
[32;1m[Board] [0mInitializing board...
[32;1m[Board] [0mLoading history file `championship/lizzie-iii-chess-ai/history.csv`...
[32;1m[Board] [0mLoaded 0 move(s).
[32;1m[Board] [0mLoading move file `championship/lizzie-iii-chess-ai/move.csv`...
[32;1m[Board] [0mWhite player is playing e2 to e4.
[32;1m[Board] [0m
[32;1m[Board] [0m    a b c d e f g h 
[32;1m[Board] [0m  -------------------
[32;1m[Board] [0m8 ||[30;1mr[0m|[30;1mk[0m|[30;1mb[0m|[30;1mQ[0m|[30;1mK[0m|[30;1mb[0m|[30;1mk[0m|[30;1mr[0m|| 8
[32;1m[Board] [0m  -------------------
[32;1m[Board] [0m7 ||[30;1mp[0m|[30;1mp[0m|[30;1mp[0m|[30;1mp[0m|[30;1mp[0m|[30;1mp[0m|[30;1mp[0m|[30;1mp[0m|| 7
[32;1m[Board] [0m  -------------------
[32;1m[Board] [0m6 ||[7;1m [0m| |[7;1m [0m| |[7;1m [0m| |[7;1m [0m| || 6
[32;1m[Board] [0m  -------------------
[32;1m[Board] [0m5 || |[7;1m [0m| |[7;1m [0m| |[7;1m [0m| |[7;1m [0m|| 5
[32;1m[Board] [0m  -------------------
[32;1m[Board] [0m4 ||[7;1m [0m| |[7;1m [0m| |[0;1mp[0m| |[7;1m [0m| || 4
[32;1m[Board] [0m  -------------------
[32;1m[Board] [0m3 || |[7;1m [0m| |[7;1m [0m| |[7;1m [0m| |[7;1m [0m|| 3
[32;1m[Board] [0m  -------------------
[32;1m[Board] [0m2 ||[0;1mp[0m|[0;1mp[0m|[0;1mp[0m|[0;1mp[0m|[7;1m [0m|[0;1mp[0m|[0;1mp[0m|[0;1mp[0m|| 2
[32;1m[Board] [0m  -------------------
[32;1m[Board] [0m1 ||[0;1mr[0m|[0;1mk[0m|[0;1mb[0m|[0;1mQ[0m|[0;1mK[0m|[0;1mb[0m|[0;1mk[0m|[0;1mr[0m|| 1
[32;1m[Board] [0m  -------------------
[32;1m[Board] [0m    a b c d e f g h
[32;1m[Board] [0m
[32;1m[Referee] [0mThis is the turn of the Black player...
5    a    b    c    d    e    f    g    h
  +----+----+----+----+----+----+----+----+
8 | mR | mN | mB | mQ | mK | mB | mN | mR | 8
  +----+----+----+----+----+----+----+----+
7 | mP | mP | mP | mP | mP | mP | mP | mP | 7
  +----+----+----+----+----+----+----+----+
6 |    |    |    |    |    |    |    |    | 6
  +----+----+----+----+----+----+----+----+
5 |    |    |    |    |    |    |    |    | 5
  +----+----+----+----+----+----+----+----+
4 |    |    |    |    | oP |    |    |    | 4
  +----+----+----+----+----+----+----+----+
3 |    |    |    |    |    |    |    |    | 3
  +----+----+----+----+----+----+----+----+
2 | oP | oP | oP | oP |    | oP | oP | oP | 2
  +----+----+----+----+----+----+----+----+
1 | oR | oN | oB | oQ | oK | oB | oN | oR | 1
  +----+----+----+----+----+----+----+----+
    a    b    c    d    e    f    g   h

    a    b    c    d    e    f    g    h
  +----+----+----+----+----+----+----+----+
8 | mR | mN | mB | mQ | mK | mB | mN | mR | 8
  +----+----+----+----+----+----+----+----+
7 | mP | mP | mP | mP | mP | mP | mP | mP | 7
  +----+----+----+----+----+----+----+----+
6 |    |    |    |    |    |    |    |    | 6
  +----+----+----+----+----+----+----+----+
5 |    |    |    |    |    |    |    |    | 5
  +----+----+----+----+----+----+----+----+
4 |    |    |    |    | oP |    |    |    | 4
  +----+----+----+----+----+----+----+----+
3 |    |    |    |    |    |    |    |    | 3
  +----+----+----+----+----+----+----+----+
2 | oP | oP | oP | oP |    | oP | oP | oP | 2
  +----+----+----+----+----+----+----+----+
1 | oR | oN | oB | oQ | oK | oB | oN | oR | 1
  +----+----+----+----+----+----+----+----+
    a    b    c    d    e    f    g   h

random move: c7c5
Move written to championship/lizzie-iii-chess-ai/move.csv successfully!
eval: -222
Result
Move: e4e3, Score: -20
Move: e1e2, Score: -30
Move: d1h5, Score: -40
Move: d1e2, Score: -45
Move: b1a3, Score: -50
Move: g1h3, Score: -50
Move: f1e2, Score: -50
Move: f1a6, Score: -50
Move: d1g4, Score: -50
Move: d1f3, Score: -55
Move: f1d3, Score: -70
Move: f1c4, Score: -70
Move: f1b5, Score: -70
Move: g1e2, Score: -80
Move: b1c3, Score: -90
Move: g1f3, Score: -90
[32;1m[Game] [0mPlayer's error code: 0
[32;1m[Game] [0mChecking move validity...
[32;1m[Board] [0mInitializing board...
[32;1m[Board] [0mLoading history file `championship/lizzie-iii-chess-ai/history.csv`...
[32;1m[Board] [0mLoaded 1 move(s).
[32;1m[Board] [0mLoading move file `championship/lizzie-iii-chess-ai/move.csv`...
[32;1m[Board] [0mBlack player is playing c7 to c5.
[32;1m[Board] [0m
[32;1m[Board] [0m    a b c d e f g h 
[32;1m[Board] [0m  -------------------
[32;1m[Board] [0m8 ||[30;1mr[0m|[30;1mk[0m|[30;1mb[0m|[30;1mQ[0m|[30;1mK[0m|[30;1mb[0m|[30;1mk[0m|[30;1mr[0m|| 8
[32;1m[Board] [0m  -------------------
[32;1m[Board] [0m7 ||[30;1mp[0m|[30;1mp[0m| |[30;1mp[0m|[30;1mp[0m|[30;1mp[0m|[30;1mp[0m|[30;1mp[0m|| 7
[32;1m[Board] [0m  -------------------
[32;1m[Board] [0m6 ||[7;1m [0m| |[7;1m [0m| |[7;1m [0m| |[7;1m [0m| || 6
[32;1m[Board] [0m  -------------------
[32;1m[Board] [0m5 || |[7;1m [0m|[30;1mp[0m|[7;1m [0m| |[7;1m [0m| |[7;1m [0m|| 5
[32;1m[Board] [0m  -------------------
[32;1m[Board] [0m4 ||[7;1m [0m| |[7;1m [0m| |[0;1mp[0m| |[7;1m [0m| || 4
[32;1m[Board] [0m  -------------------
[32;1m[Board] [0m3 || |[7;1m [0m| |[7;1m [0m| |[7;1m [0m| |[7;1m [0m|| 3
[32;1m[Board] [0m  -------------------
[32;1m[Board] [0m2 ||[0;1mp[0m|[0;1mp[0m|[0;1mp[0m|[0;1mp[0m|[7;1m [0m|[0;1mp[0m|[0;1mp[0m|[0;1mp[0m|| 2
[32;1m[Board] [0m  -------------------
[32;1m[Board] [0m1 ||[0;1mr[0m|[0;1mk[0m|[0;1mb[0m|[0;1mQ[0m|[0;1mK[0m|[0;1mb[0m|[0;1mk[0m|[0;1mr[0m|| 1
[32;1m[Board] [0m  -------------------
[32;1m[Board] [0m    a b c d e f g h
[32;1m[Board] [0m
[32;1m[Referee] [0mThis is the turn of the White player...
Input file: championship/lizzie-iii-chess-ai/history.csv
Output file: championship/lizzie-iii-chess-ai/move.csv
We are playing as White
8 | [1;31mR[0m [1;31mN[0m [1;31mB[0m [1;31mQ[0m [1;31mK[0m [1;31mB[0m [1;31mN[0m [1;31mR[0m 
7 | [1;31mP[0m [1;31mP[0m [1;30m_[0m [1;31mP[0m [1;31mP[0m [1;31mP[0m [1;31mP[0m [1;31mP[0m 
6 | [1;30m_[0m [1;30m_[0m [1;30m_[0m [1;30m_[0m [1;30m_[0m [1;30m_[0m [1;30m_[0m [1;30m_[0m 
5 | [1;30m_[0m [1;30m_[0m [1;31mP[0m [1;30m_[0m [1;30m_[0m [1;30m_[0m [1;30m_[0m [1;30m_[0m 
4 | [1;30m_[0m [1;30m_[0m [1;30m_[0m [1;30m_[0m [1;32mP[0m [1;30m_[0m [1;30m_[0m [1;30m_[0m 
3 | [1;30m_[0m [1;30m_[0m [1;30m_[0m [1;30m_[0m [1;30m_[0m [1;30m_[0m [1;30m_[0m [1;30m_[0m 
2 | [1;32mP[0m [1;32mP[0m [1;32mP[0m [1;32mP[0m [1;30m_[0m [1;32mP[0m [1;32mP[0m [1;32mP[0m 
1 | [1;32mR[0m [1;32mN[0m [1;32mB[0m [1;32mQ[0m [1;32mK[0m [1;32mB[0m [1;32mN[0m [1;32mR[0m 
-------------------
  | A B C D E F G H 

It is white's turn to play.
Best move: b1c3
Evaluation: 150
Node count: 42089

Total time: 1037.7 ms
[32;1m[Game] [0mPlayer's error code: 0
[32;1m[Game] [0mChecking move validity...
[32;1m[Board] [0mInitializing board...
[32;1m[Board] [0mLoading history file `championship/lizzie-iii-chess-ai/history.csv`...
[32;1m[Board] [0mLoaded 2 move(s).
[32;1m[Board] [0mLoading move file `championship/lizzie-iii-chess-ai/move.csv`...
[32;1m[Board] [0mWhite player is playing b1 to c3.
[32;1m[Board] [0m
[32;1m[Board] [0m    a b c d e f g h 
[32;1m[Board] [0m  -------------------
[32;1m[Board] [0m8 ||[30;1mr[0m|[30;1mk[0m|[30;1mb[0m|[30;1mQ[0m|[30;1mK[0m|[30;1mb[0m|[30;1mk[0m|[30;1mr[0m|| 8
[32;1m[Board] [0m  -------------------
[32;1m[Board] [0m7 ||[30;1mp[0m|[30;1mp[0m| |[30;1mp[0m|[30;1mp[0m|[30;1mp[0m|[30;1mp[0m|[30;1mp[0m|| 7
[32;1m[Board] [0m  -------------------
[32;1m[Board] [0m6 ||[7;1m [0m| |[7;1m [0m| |[7;1m [0m| |[7;1m [0m| || 6
[32;1m[Board] [0m  -------------------
[32;1m[Board] [0m5 || |[7;1m [0m|[30;1mp[0m|[7;1m [0m| |[7;1m [0m| |[7;1m [0m|| 5
[32;1m[Board] [0m  -------------------
[32;1m[Board] [0m4 ||[7;1m [0m| |[7;1m [0m| |[0;1mp[0m| |[7;1m [0m| || 4
[32;1m[Board] [0m  -------------------
[32;1m[Board] [0m3 || |[7;1m [0m|[0;1mk[0m|[7;1m [0m| |[7;1m [0m| |[7;1m [0m|| 3
[32;1m[Board] [0m  -------------------
[32;1m[Board] [0m2 ||[0;1mp[0m|[0;1mp[0m|[0;1mp[0m|[0;1mp[0m|[7;1m [0m|[0;1mp[0m|[0;1mp[0m|[0;1mp[0m|| 2
[32;1m[Board] [0m  -------------------
[32;1m[Board] [0m1 ||[0;1mr[0m|[7;1m [0m|[0;1mb[0m|[0;1mQ[0m|[0;1mK[0m|[0;1mb[0m|[0;1mk[0m|[0;1mr[0m|| 1
[32;1m[Board] [0m  -------------------
[32;1m[Board] [0m    a b c d e f g h
[32;1m[Board] [0m
[32;1m[Referee] [0mThis is the turn of the Black player...
5    a    b    c    d    e    f    g    h
  +----+----+----+----+----+----+----+----+
8 | mR | mN | mB | mQ | mK | mB | mN | mR | 8
  +----+----+----+----+----+----+----+----+
7 | mP | mP | mP | mP | mP | mP | mP | mP | 7
  +----+----+----+----+----+----+----+----+
6 |    |    |    |    |    |    |    |    | 6
  +----+----+----+----+----+----+----+----+
5 |    |    |    |    |    |    |    |    | 5
  +----+----+----+----+----+----+----+----+
4 |    |    |    |    | oP |    |    |    | 4
  +----+----+----+----+----+----+----+----+
3 |    |    |    |    |    |    |    |    | 3
  +----+----+----+----+----+----+----+----+
2 | oP | oP | oP | oP |    | oP | oP | oP | 2
  +----+----+----+----+----+----+----+----+
1 | oR | oN | oB | oQ | oK | oB | oN | oR | 1
  +----+----+----+----+----+----+----+----+
    a    b    c    d    e    f    g   h

    a    b    c    d    e    f    g    h
  +----+----+----+----+----+----+----+----+
8 | mR | mN | mB | mQ | mK | mB | mN | mR | 8
  +----+----+----+----+----+----+----+----+
7 | mP | mP |    | mP | mP | mP | mP | mP | 7
  +----+----+----+----+----+----+----+----+
6 |    |    |    |    |    |    |    |    | 6
  +----+----+----+----+----+----+----+----+
5 |    |    | mP |    |    |    |    |    | 5
  +----+----+----+----+----+----+----+----+
4 |    |    |    |    | oP |    |    |    | 4
  +----+----+----+----+----+----+----+----+
3 |    |    |    |    |    |    |    |    | 3
  +----+----+----+----+----+----+----+----+
2 | oP | oP | oP | oP |    | oP | oP | oP | 2
  +----+----+----+----+----+----+----+----+
1 | oR | oN | oB | oQ | oK | oB | oN | oR | 1
  +----+----+----+----+----+----+----+----+
    a    b    c    d    e    f    g   h

    a    b    c    d    e    f    g    h
  +----+----+----+----+----+----+----+----+
8 | mR | mN | mB | mQ | mK | mB | mN | mR | 8
  +----+----+----+----+----+----+----+----+
7 | mP | mP |    | mP | mP | mP | mP | mP | 7
  +----+----+----+----+----+----+----+----+
6 |    |    |    |    |    |    |    |    | 6
  +----+----+----+----+----+----+----+----+
5 |    |    | mP |    |    |    |    |    | 5
  +----+----+----+----+----+----+----+----+
4 |    |    |    |    | oP |    |    |    | 4
  +----+----+----+----+----+----+----+----+
3 |    |    | oN |    |    |    |    |    | 3
  +----+----+----+----+----+----+----+----+
2 | oP | oP | oP | oP |    | oP | oP | oP | 2
  +----+----+----+----+----+----+----+----+
1 | oR |    | oB | oQ | oK | oB | oN | oR | 1
  +----+----+----+----+----+----+----+----+
    a    b    c    d    e    f    g   h

    a    b    c    d    e    f    g    h
  +----+----+----+----+----+----+----+----+
8 | mR | mN | mB | mQ | mK | mB | mN | mR | 8
  +----+----+----+----+----+----+----+----+
7 | mP | mP |    | mP | mP | mP | mP | mP | 7
  +----+----+----+----+----+----+----+----+
6 |    |    |    |    |    |    |    |    | 6
  +----+----+----+----+----+----+----+----+
5 |    |    | mP |    |    |    |    |    | 5
  +----+----+----+----+----+----+----+----+
4 |    |    |    |    | oP |    |    |    | 4
  +----+----+----+----+----+----+----+----+
3 |    |    | oN |    |    |    |    |    | 3
  +----+----+----+----+----+----+----+----+
2 | oP | oP | oP | oP |    | oP | oP | oP | 2
  +----+----+----+----+----+----+----+----+
1 | oR |    | oB | oQ | oK | oB | oN | oR | 1
  +----+----+----+----+----+----+----+----+
    a    b    c    d    e    f    g   h

random move: g8f6
Move written to championship/lizzie-iii-chess-ai/move.csv successfully!
eval: -265
qrbkqrbkResult
Move: c3b1, Score: -50
Move: c3a4, Score: -60
Move: e4e3, Score: -80
Move: e1e2, Score: -90
Move: c3b5, Score: -90
Move: c3e2, Score: -90
Move: a1b1, Score: -100
Move: d1h5, Score: -100
Move: d1e2, Score: -105
Move: c3d5, Score: -110
Move: d1g4, Score: -110
Move: g1h3, Score: -110
Move: f1e2, Score: -110
Move: f1a6, Score: -110
Move: d1f3, Score: -115
Move: f1d3, Score: -130
Move: f1c4, Score: -130
Move: f1b5, Score: -130
Move: g1e2, Score: -140
Move: g1f3, Score: -150
Move: b2b1k, Score: -250
Move: b2b1b, Score: -270
Move: b2b1r, Score: -490
Move: b2b1q, Score: -880
[32;1m[Game] [0mPlayer's error code: 0
[32;1m[Game] [0mChecking move validity...
[32;1m[Board] [0mInitializing board...
[32;1m[Board] [0mLoading history file `championship/lizzie-iii-chess-ai/history.csv`...
[32;1m[Board] [0mLoaded 3 move(s).
[32;1m[Board] [0mLoading move file `championship/lizzie-iii-chess-ai/move.csv`...
[32;1m[Board] [0mBlack player is playing g8 to f6.
[32;1m[Board] [0m
[32;1m[Board] [0m    a b c d e f g h 
[32;1m[Board] [0m  -------------------
[32;1m[Board] [0m8 ||[30;1mr[0m|[30;1mk[0m|[30;1mb[0m|[30;1mQ[0m|[30;1mK[0m|[30;1mb[0m|[7;1m [0m|[30;1mr[0m|| 8
[32;1m[Board] [0m  -------------------
[32;1m[Board] [0m7 ||[30;1mp[0m|[30;1mp[0m| |[30;1mp[0m|[30;1mp[0m|[30;1mp[0m|[30;1mp[0m|[30;1mp[0m|| 7
[32;1m[Board] [0m  -------------------
[32;1m[Board] [0m6 ||[7;1m [0m| |[7;1m [0m| |[7;1m [0m|[30;1mk[0m|[7;1m [0m| || 6
[32;1m[Board] [0m  -------------------
[32;1m[Board] [0m5 || |[7;1m [0m|[30;1mp[0m|[7;1m [0m| |[7;1m [0m| |[7;1m [0m|| 5
[32;1m[Board] [0m  -------------------
[32;1m[Board] [0m4 ||[7;1m [0m| |[7;1m [0m| |[0;1mp[0m| |[7;1m [0m| || 4
[32;1m[Board] [0m  -------------------
[32;1m[Board] [0m3 || |[7;1m [0m|[0;1mk[0m|[7;1m [0m| |[7;1m [0m| |[7;1m [0m|| 3
[32;1m[Board] [0m  -------------------
[32;1m[Board] [0m2 ||[0;1mp[0m|[0;1mp[0m|[0;1mp[0m|[0;1mp[0m|[7;1m [0m|[0;1mp[0m|[0;1mp[0m|[0;1mp[0m|| 2
[32;1m[Board] [0m  -------------------
[32;1m[Board] [0m1 ||[0;1mr[0m|[7;1m [0m|[0;1mb[0m|[0;1mQ[0m|[0;1mK[0m|[0;1mb[0m|[0;1mk[0m|[0;1mr[0m|| 1
[32;1m[Board] [0m  -------------------
[32;1m[Board] [0m    a b c d e f g h
[32;1m[Board] [0m
[32;1m[Referee] [0mThis is the turn of the White player...
Input file: championship/lizzie-iii-chess-ai/history.csv
Output file: championship/lizzie-iii-chess-ai/move.csv
We are playing as White
8 | [1;31mR[0m [1;31mN[0m [1;31mB[0m [1;31mQ[0m [1;31mK[0m [1;31mB[0m [1;30m_[0m [1;31mR[0m 
7 | [1;31mP[0m [1;31mP[0m [1;30m_[0m [1;31mP[0m [1;31mP[0m [1;31mP[0m [1;31mP[0m [1;31mP[0m 
6 | [1;30m_[0m [1;30m_[0m [1;30m_[0m [1;30m_[0m [1;30m_[0m [1;31mN[0m [1;30m_[0m [1;30m_[0m 
5 | [1;30m_[0m [1;30m_[0m [1;31mP[0m [1;30m_[0m [1;30m_[0m [1;30m_[0m [1;30m_[0m [1;30m_[0m 
4 | [1;30m_[0m [1;30m_[0m [1;30m_[0m [1;30m_[0m [1;32mP[0m [1;30m_[0m [1;30m_[0m [1;30m_[0m 
3 | [1;30m_[0m [1;30m_[0m [1;32mN[0m [1;30m_[0m [1;30m_[0m [1;30m_[0m [1;30m_[0m [1;30m_[0m 
2 | [1;32mP[0m [1;32mP[0m [1;32mP[0m [1;32mP[0m [1;30m_[0m [1;32mP[0m [1;32mP[0m [1;32mP[0m 
1 | [1;32mR[0m [1;30m_[0m [1;32mB[0m [1;32mQ[0m [1;32mK[0m [1;32mB[0m [1;32mN[0m [1;32mR[0m 
-------------------
  | A B C D E F G H 

It is white's turn to play.
Best move: d1f3
Evaluation: 215
Node count: 79517

Total time: 1810.99 ms
[32;1m[Game] [0mPlayer's error code: 0
[32;1m[Game] [0mChecking move validity...
[32;1m[Board] [0mInitializing board...
[32;1m[Board] [0mLoading history file `championship/lizzie-iii-chess-ai/history.csv`...
[32;1m[Board] [0mLoaded 4 move(s).
[32;1m[Board] [0mLoading move file `championship/lizzie-iii-chess-ai/move.csv`...
[32;1m[Board] [0mWhite player is playing d1 to f3.
[32;1m[Board] [0m
[32;1m[Board] [0m    a b c d e f g h 
[32;1m[Board] [0m  -------------------
[32;1m[Board] [0m8 ||[30;1mr[0m|[30;1mk[0m|[30;1mb[0m|[30;1mQ[0m|[30;1mK[0m|[30;1mb[0m|[7;1m [0m|[30;1mr[0m|| 8
[32;1m[Board] [0m  -------------------
[32;1m[Board] [0m7 ||[30;1mp[0m|[30;1mp[0m| |[30;1mp[0m|[30;1mp[0m|[30;1mp[0m|[30;1mp[0m|[30;1mp[0m|| 7
[32;1m[Board] [0m  -------------------
[32;1m[Board] [0m6 ||[7;1m [0m| |[7;1m [0m| |[7;1m [0m|[30;1mk[0m|[7;1m [0m| || 6
[32;1m[Board] [0m  -------------------
[32;1m[Board] [0m5 || |[7;1m [0m|[30;1mp[0m|[7;1m [0m| |[7;1m [0m| |[7;1m [0m|| 5
[32;1m[Board] [0m  -------------------
[32;1m[Board] [0m4 ||[7;1m [0m| |[7;1m [0m| |[0;1mp[0m| |[7;1m [0m| || 4
[32;1m[Board] [0m  -------------------
[32;1m[Board] [0m3 || |[7;1m [0m|[0;1mk[0m|[7;1m [0m| |[0;1mQ[0m| |[7;1m [0m|| 3
[32;1m[Board] [0m  -------------------
[32;1m[Board] [0m2 ||[0;1mp[0m|[0;1mp[0m|[0;1mp[0m|[0;1mp[0m|[7;1m [0m|[0;1mp[0m|[0;1mp[0m|[0;1mp[0m|| 2
[32;1m[Board] [0m  -------------------
[32;1m[Board] [0m1 ||[0;1mr[0m|[7;1m [0m|[0;1mb[0m|[7;1m [0m|[0;1mK[0m|[0;1mb[0m|[0;1mk[0m|[0;1mr[0m|| 1
[32;1m[Board] [0m  -------------------
[32;1m[Board] [0m    a b c d e f g h
[32;1m[Board] [0m
[32;1m[Referee] [0mThis is the turn of the Black player...
5    a    b    c    d    e    f    g    h
  +----+----+----+----+----+----+----+----+
8 | mR | mN | mB | mQ | mK | mB | mN | mR | 8
  +----+----+----+----+----+----+----+----+
7 | mP | mP | mP | mP | mP | mP | mP | mP | 7
  +----+----+----+----+----+----+----+----+
6 |    |    |    |    |    |    |    |    | 6
  +----+----+----+----+----+----+----+----+
5 |    |    |    |    |    |    |    |    | 5
  +----+----+----+----+----+----+----+----+
4 |    |    |    |    | oP |    |    |    | 4
  +----+----+----+----+----+----+----+----+
3 |    |    |    |    |    |    |    |    | 3
  +----+----+----+----+----+----+----+----+
2 | oP | oP | oP | oP |    | oP | oP | oP | 2
  +----+----+----+----+----+----+----+----+
1 | oR | oN | oB | oQ | oK | oB | oN | oR | 1
  +----+----+----+----+----+----+----+----+
    a    b    c    d    e    f    g   h

    a    b    c    d    e    f    g    h
  +----+----+----+----+----+----+----+----+
8 | mR | mN | mB | mQ | mK | mB | mN | mR | 8
  +----+----+----+----+----+----+----+----+
7 | mP | mP |    | mP | mP | mP | mP | mP | 7
  +----+----+----+----+----+----+----+----+
6 |    |    |    |    |    |    |    |    | 6
  +----+----+----+----+----+----+----+----+
5 |    |    | mP |    |    |    |    |    | 5
  +----+----+----+----+----+----+----+----+
4 |    |    |    |    | oP |    |    |    | 4
  +----+----+----+----+----+----+----+----+
3 |    |    |    |    |    |    |    |    | 3
  +----+----+----+----+----+----+----+----+
2 | oP | oP | oP | oP |    | oP | oP | oP | 2
  +----+----+----+----+----+----+----+----+
1 | oR | oN | oB | oQ | oK | oB | oN | oR | 1
  +----+----+----+----+----+----+----+----+
    a    b    c    d    e    f    g   h

    a    b    c    d    e    f    g    h
  +----+----+----+----+----+----+----+----+
8 | mR | mN | mB | mQ | mK | mB | mN | mR | 8
  +----+----+----+----+----+----+----+----+
7 | mP | mP |    | mP | mP | mP | mP | mP | 7
  +----+----+----+----+----+----+----+----+
6 |    |    |    |    |    |    |    |    | 6
  +----+----+----+----+----+----+----+----+
5 |    |    | mP |    |    |    |    |    | 5
  +----+----+----+----+----+----+----+----+
4 |    |    |    |    | oP |    |    |    | 4
  +----+----+----+----+----+----+----+----+
3 |    |    | oN |    |    |    |    |    | 3
  +----+----+----+----+----+----+----+----+
2 | oP | oP | oP | oP |    | oP | oP | oP | 2
  +----+----+----+----+----+----+----+----+
1 | oR |    | oB | oQ | oK | oB | oN | oR | 1
  +----+----+----+----+----+----+----+----+
    a    b    c    d    e    f    g   h

    a    b    c    d    e    f    g    h
  +----+----+----+----+----+----+----+----+
8 | mR | mN | mB | mQ | mK | mB |    | mR | 8
  +----+----+----+----+----+----+----+----+
7 | mP | mP |    | mP | mP | mP | mP | mP | 7
  +----+----+----+----+----+----+----+----+
6 |    |    |    |    |    | mN |    |    | 6
  +----+----+----+----+----+----+----+----+
5 |    |    | mP |    |    |    |    |    | 5
  +----+----+----+----+----+----+----+----+
4 |    |    |    |    | oP |    |    |    | 4
  +----+----+----+----+----+----+----+----+
3 |    |    | oN |    |    |    |    |    | 3
  +----+----+----+----+----+----+----+----+
2 | oP | oP | oP | oP |    | oP | oP | oP | 2
  +----+----+----+----+----+----+----+----+
1 | oR |    | oB | oQ | oK | oB | oN | oR | 1
  +----+----+----+----+----+----+----+----+
    a    b    c    d    e    f    g   h

    a    b    c    d    e    f    g    h
  +----+----+----+----+----+----+----+----+
8 | mR | mN | mB | mQ | mK | mB |    | mR | 8
  +----+----+----+----+----+----+----+----+
7 | mP | mP |    | mP | mP | mP | mP | mP | 7
  +----+----+----+----+----+----+----+----+
6 |    |    |    |    |    | mN |    |    | 6
  +----+----+----+----+----+----+----+----+
5 |    |    | mP |    |    |    |    |    | 5
  +----+----+----+----+----+----+----+----+
4 |    |    |    |    | oP |    |    |    | 4
  +----+----+----+----+----+----+----+----+
3 |    |    | oN |    |    | oQ |    |    | 3
  +----+----+----+----+----+----+----+----+
2 | oP | oP | oP | oP |    | oP | oP | oP | 2
  +----+----+----+----+----+----+----+----+
1 | oR |    | oB |    | oK | oB | oN | oR | 1
  +----+----+----+----+----+----+----+----+
    a    b    c    d    e    f    g   h

    a    b    c    d    e    f    g    h
  +----+----+----+----+----+----+----+----+
8 | mR | mN | mB | mQ | mK | mB |    | mR | 8
  +----+----+----+----+----+----+----+----+
7 | mP | mP |    | mP | mP | mP | mP | mP | 7
  +----+----+----+----+----+----+----+----+
6 |    |    |    |    |    | mN |    |    | 6
  +----+----+----+----+----+----+----+----+
5 |    |    | mP |    |    |    |    |    | 5
  +----+----+----+----+----+----+----+----+
4 |    |    |    |    | oP |    |    |    | 4
  +----+----+----+----+----+----+----+----+
3 |    |    | oN |    |    | oQ |    |    | 3
  +----+----+----+----+----+----+----+----+
2 | oP | oP | oP | oP |    | oP | oP | oP | 2
  +----+----+----+----+----+----+----+----+
1 | oR |    | oB |    | oK | oB | oN | oR | 1
  +----+----+----+----+----+----+----+----+
    a    b    c    d    e    f    g   h

random move: a7a5
Move written to championship/lizzie-iii-chess-ai/move.csv successfully!
eval: -398
qrbkqrbkqrbkqrbkResult
Move: c3b1, Score: -15
Move: c3d1, Score: -25
Move: c3a4, Score: -25
Move: f3h3, Score: -45
Move: e4e3, Score: -45
Move: f3h5, Score: -50
Move: f3d1, Score: -50
Move: e1e2, Score: -55
Move: f3g3, Score: -55
Move: f3e2, Score: -55
Move: c3e2, Score: -55
Move: c3b5, Score: -55
Move: f3g4, Score: -60
Move: e1d1, Score: -65
Move: a1b1, Score: -65
Move: f3f4, Score: -70
Move: f3f5, Score: -70
Move: f3e3, Score: -70
Move: f3d3, Score: -70
Move: f1e2, Score: -75
Move: f1a6, Score: -75
Move: g1h3, Score: -75
Move: c3d5, Score: -75
Move: f1b5, Score: -95
Move: f1c4, Score: -95
Move: f1d3, Score: -95
Move: g1e2, Score: -105
Move: b2b1k, Score: -215
Move: b2b1b, Score: -235
Move: d2d1k, Score: -255
Move: d2d1b, Score: -265
Move: f3f6, Score: -375
Move: b2b1r, Score: -455
Move: d2d1r, Score: -485
Move: b2b1q, Score: -845
Move: d2d1q, Score: -880
[32;1m[Game] [0mPlayer's error code: 0
[32;1m[Game] [0mChecking move validity...
[32;1m[Board] [0mInitializing board...
[32;1m[Board] [0mLoading history file `championship/lizzie-iii-chess-ai/history.csv`...
[32;1m[Board] [0mLoaded 5 move(s).
[32;1m[Board] [0mLoading move file `championship/lizzie-iii-chess-ai/move.csv`...
[32;1m[Board] [0mBlack player is playing a7 to a5.
[32;1m[Board] [0m
[32;1m[Board] [0m    a b c d e f g h 
[32;1m[Board] [0m  -------------------
[32;1m[Board] [0m8 ||[30;1mr[0m|[30;1mk[0m|[30;1mb[0m|[30;1mQ[0m|[30;1mK[0m|[30;1mb[0m|[7;1m [0m|[30;1mr[0m|| 8
[32;1m[Board] [0m  -------------------
[32;1m[Board] [0m7 || |[30;1mp[0m| |[30;1mp[0m|[30;1mp[0m|[30;1mp[0m|[30;1mp[0m|[30;1mp[0m|| 7
[32;1m[Board] [0m  -------------------
[32;1m[Board] [0m6 ||[7;1m [0m| |[7;1m [0m| |[7;1m [0m|[30;1mk[0m|[7;1m [0m| || 6
[32;1m[Board] [0m  -------------------
[32;1m[Board] [0m5 ||[30;1mp[0m|[7;1m [0m|[30;1mp[0m|[7;1m [0m| |[7;1m [0m| |[7;1m [0m|| 5
[32;1m[Board] [0m  -------------------
[32;1m[Board] [0m4 ||[7;1m [0m| |[7;1m [0m| |[0;1mp[0m| |[7;1m [0m| || 4
[32;1m[Board] [0m  -------------------
[32;1m[Board] [0m3 || |[7;1m [0m|[0;1mk[0m|[7;1m [0m| |[0;1mQ[0m| |[7;1m [0m|| 3
[32;1m[Board] [0m  -------------------
[32;1m[Board] [0m2 ||[0;1mp[0m|[0;1mp[0m|[0;1mp[0m|[0;1mp[0m|[7;1m [0m|[0;1mp[0m|[0;1mp[0m|[0;1mp[0m|| 2
[32;1m[Board] [0m  -------------------
[32;1m[Board] [0m1 ||[0;1mr[0m|[7;1m [0m|[0;1mb[0m|[7;1m [0m|[0;1mK[0m|[0;1mb[0m|[0;1mk[0m|[0;1mr[0m|| 1
[32;1m[Board] [0m  -------------------
[32;1m[Board] [0m    a b c d e f g h
[32;1m[Board] [0m
[32;1m[Referee] [0mThis is the turn of the White player...
Input file: championship/lizzie-iii-chess-ai/history.csv
Output file: championship/lizzie-iii-chess-ai/move.csv
We are playing as White
8 | [1;31mR[0m [1;31mN[0m [1;31mB[0m [1;31mQ[0m [1;31mK[0m [1;31mB[0m [1;30m_[0m [1;31mR[0m 
7 | [1;30m_[0m [1;31mP[0m [1;30m_[0m [1;31mP[0m [1;31mP[0m [1;31mP[0m [1;31mP[0m [1;31mP[0m 
6 | [1;30m_[0m [1;30m_[0m [1;30m_[0m [1;30m_[0m [1;30m_[0m [1;31mN[0m [1;30m_[0m [1;30m_[0m 
5 | [1;31mP[0m [1;30m_[0m [1;31mP[0m [1;30m_[0m [1;30m_[0m [1;30m_[0m [1;30m_[0m [1;30m_[0m 
4 | [1;30m_[0m [1;30m_[0m [1;30m_[0m [1;30m_[0m [1;32mP[0m [1;30m_[0m [1;30m_[0m [1;30m_[0m 
3 | [1;30m_[0m [1;30m_[0m [1;32mN[0m [1;30m_[0m [1;30m_[0m [1;32mQ[0m [1;30m_[0m [1;30m_[0m 
2 | [1;32mP[0m [1;32mP[0m [1;32mP[0m [1;32mP[0m [1;30m_[0m [1;32mP[0m [1;32mP[0m [1;32mP[0m 
1 | [1;32mR[0m [1;30m_[0m [1;32mB[0m [1;30m_[0m [1;32mK[0m [1;32mB[0m [1;32mN[0m [1;32mR[0m 
-------------------
  | A B C D E F G H 

It is white's turn to play.
Best move: f3f5
Evaluation: 320
Node count: 153803

Total time: 5411.31 ms
[32;1m[Game] [0mPlayer's error code: 0
[32;1m[Game] [0mChecking move validity...
[32;1m[Board] [0mInitializing board...
[32;1m[Board] [0mLoading history file `championship/lizzie-iii-chess-ai/history.csv`...
[32;1m[Board] [0mLoaded 6 move(s).
[32;1m[Board] [0mLoading move file `championship/lizzie-iii-chess-ai/move.csv`...
[32;1m[Board] [0mWhite player is playing f3 to f5.
[32;1m[Board] [0m
[32;1m[Board] [0m    a b c d e f g h 
[32;1m[Board] [0m  -------------------
[32;1m[Board] [0m8 ||[30;1mr[0m|[30;1mk[0m|[30;1mb[0m|[30;1mQ[0m|[30;1mK[0m|[30;1mb[0m|[7;1m [0m|[30;1mr[0m|| 8
[32;1m[Board] [0m  -------------------
[32;1m[Board] [0m7 || |[30;1mp[0m| |[30;1mp[0m|[30;1mp[0m|[30;1mp[0m|[30;1mp[0m|[30;1mp[0m|| 7
[32;1m[Board] [0m  -------------------
[32;1m[Board] [0m6 ||[7;1m [0m| |[7;1m [0m| |[7;1m [0m|[30;1mk[0m|[7;1m [0m| || 6
[32;1m[Board] [0m  -------------------
[32;1m[Board] [0m5 ||[30;1mp[0m|[7;1m [0m|[30;1mp[0m|[7;1m [0m| |[0;1mQ[0m| |[7;1m [0m|| 5
[32;1m[Board] [0m  -------------------
[32;1m[Board] [0m4 ||[7;1m [0m| |[7;1m [0m| |[0;1mp[0m| |[7;1m [0m| || 4
[32;1m[Board] [0m  -------------------
[32;1m[Board] [0m3 || |[7;1m [0m|[0;1mk[0m|[7;1m [0m| |[7;1m [0m| |[7;1m [0m|| 3
[32;1m[Board] [0m  -------------------
[32;1m[Board] [0m2 ||[0;1mp[0m|[0;1mp[0m|[0;1mp[0m|[0;1mp[0m|[7;1m [0m|[0;1mp[0m|[0;1mp[0m|[0;1mp[0m|| 2
[32;1m[Board] [0m  -------------------
[32;1m[Board] [0m1 ||[0;1mr[0m|[7;1m [0m|[0;1mb[0m|[7;1m [0m|[0;1mK[0m|[0;1mb[0m|[0;1mk[0m|[0;1mr[0m|| 1
[32;1m[Board] [0m  -------------------
[32;1m[Board] [0m    a b c d e f g h
[32;1m[Board] [0m
[32;1m[Referee] [0mThis is the turn of the Black player...
5    a    b    c    d    e    f    g    h
  +----+----+----+----+----+----+----+----+
8 | mR | mN | mB | mQ | mK | mB | mN | mR | 8
  +----+----+----+----+----+----+----+----+
7 | mP | mP | mP | mP | mP | mP | mP | mP | 7
  +----+----+----+----+----+----+----+----+
6 |    |    |    |    |    |    |    |    | 6
  +----+----+----+----+----+----+----+----+
5 |    |    |    |    |    |    |    |    | 5
  +----+----+----+----+----+----+----+----+
4 |    |    |    |    | oP |    |    |    | 4
  +----+----+----+----+----+----+----+----+
3 |    |    |    |    |    |    |    |    | 3
  +----+----+----+----+----+----+----+----+
2 | oP | oP | oP | oP |    | oP | oP | oP | 2
  +----+----+----+----+----+----+----+----+
1 | oR | oN | oB | oQ | oK | oB | oN | oR | 1
  +----+----+----+----+----+----+----+----+
    a    b    c    d    e    f    g   h

    a    b    c    d    e    f    g    h
  +----+----+----+----+----+----+----+----+
8 | mR | mN | mB | mQ | mK | mB | mN | mR | 8
  +----+----+----+----+----+----+----+----+
7 | mP | mP |    | mP | mP | mP | mP | mP | 7
  +----+----+----+----+----+----+----+----+
6 |    |    |    |    |    |    |    |    | 6
  +----+----+----+----+----+----+----+----+
5 |    |    | mP |    |    |    |    |    | 5
  +----+----+----+----+----+----+----+----+
4 |    |    |    |    | oP |    |    |    | 4
  +----+----+----+----+----+----+----+----+
3 |    |    |    |    |    |    |    |    | 3
  +----+----+----+----+----+----+----+----+
2 | oP | oP | oP | oP |    | oP | oP | oP | 2
  +----+----+----+----+----+----+----+----+
1 | oR | oN | oB | oQ | oK | oB | oN | oR | 1
  +----+----+----+----+----+----+----+----+
    a    b    c    d    e    f    g   h

    a    b    c    d    e    f    g    h
  +----+----+----+----+----+----+----+----+
8 | mR | mN | mB | mQ | mK | mB | mN | mR | 8
  +----+----+----+----+----+----+----+----+
7 | mP | mP |    | mP | mP | mP | mP | mP | 7
  +----+----+----+----+----+----+----+----+
6 |    |    |    |    |    |    |    |    | 6
  +----+----+----+----+----+----+----+----+
5 |    |    | mP |    |    |    |    |    | 5
  +----+----+----+----+----+----+----+----+
4 |    |    |    |    | oP |    |    |    | 4
  +----+----+----+----+----+----+----+----+
3 |    |    | oN |    |    |    |    |    | 3
  +----+----+----+----+----+----+----+----+
2 | oP | oP | oP | oP |    | oP | oP | oP | 2
  +----+----+----+----+----+----+----+----+
1 | oR |    | oB | oQ | oK | oB | oN | oR | 1
  +----+----+----+----+----+----+----+----+
    a    b    c    d    e    f    g   h

    a    b    c    d    e    f    g    h
  +----+----+----+----+----+----+----+----+
8 | mR | mN | mB | mQ | mK | mB |    | mR | 8
  +----+----+----+----+----+----+----+----+
7 | mP | mP |    | mP | mP | mP | mP | mP | 7
  +----+----+----+----+----+----+----+----+
6 |    |    |    |    |    | mN |    |    | 6
  +----+----+----+----+----+----+----+----+
5 |    |    | mP |    |    |    |    |    | 5
  +----+----+----+----+----+----+----+----+
4 |    |    |    |    | oP |    |    |    | 4
  +----+----+----+----+----+----+----+----+
3 |    |    | oN |    |    |    |    |    | 3
  +----+----+----+----+----+----+----+----+
2 | oP | oP | oP | oP |    | oP | oP | oP | 2
  +----+----+----+----+----+----+----+----+
1 | oR |    | oB | oQ | oK | oB | oN | oR | 1
  +----+----+----+----+----+----+----+----+
    a    b    c    d    e    f    g   h

    a    b    c    d    e    f    g    h
  +----+----+----+----+----+----+----+----+
8 | mR | mN | mB | mQ | mK | mB |    | mR | 8
  +----+----+----+----+----+----+----+----+
7 | mP | mP |    | mP | mP | mP | mP | mP | 7
  +----+----+----+----+----+----+----+----+
6 |    |    |    |    |    | mN |    |    | 6
  +----+----+----+----+----+----+----+----+
5 |    |    | mP |    |    |    |    |    | 5
  +----+----+----+----+----+----+----+----+
4 |    |    |    |    | oP |    |    |    | 4
  +----+----+----+----+----+----+----+----+
3 |    |    | oN |    |    | oQ |    |    | 3
  +----+----+----+----+----+----+----+----+
2 | oP | oP | oP | oP |    | oP | oP | oP | 2
  +----+----+----+----+----+----+----+----+
1 | oR |    | oB |    | oK | oB | oN | oR | 1
  +----+----+----+----+----+----+----+----+
    a    b    c    d    e    f    g   h

    a    b    c    d    e    f    g    h
  +----+----+----+----+----+----+----+----+
8 | mR | mN | mB | mQ | mK | mB |    | mR | 8
  +----+----+----+----+----+----+----+----+
7 |    | mP |    | mP | mP | mP | mP | mP | 7
  +----+----+----+----+----+----+----+----+
6 |    |    |    |    |    | mN |    |    | 6
  +----+----+----+----+----+----+----+----+
5 | mP |    | mP |    |    |    |    |    | 5
  +----+----+----+----+----+----+----+----+
4 |    |    |    |    | oP |    |    |    | 4
  +----+----+----+----+----+----+----+----+
3 |    |    | oN |    |    | oQ |    |    | 3
  +----+----+----+----+----+----+----+----+
2 | oP | oP | oP | oP |    | oP | oP | oP | 2
  +----+----+----+----+----+----+----+----+
1 | oR |    | oB |    | oK | oB | oN | oR | 1
  +----+----+----+----+----+----+----+----+
    a    b    c    d    e    f    g   h

    a    b    c    d    e    f    g    h
  +----+----+----+----+----+----+----+----+
8 | mR | mN | mB | mQ | mK | mB |    | mR | 8
  +----+----+----+----+----+----+----+----+
7 |    | mP |    | mP | mP | mP | mP | mP | 7
  +----+----+----+----+----+----+----+----+
6 |    |    |    |    |    | mN |    |    | 6
  +----+----+----+----+----+----+----+----+
5 | mP |    | mP |    |    | oQ |    |    | 5
  +----+----+----+----+----+----+----+----+
4 |    |    |    |    | oP |    |    |    | 4
  +----+----+----+----+----+----+----+----+
3 |    |    | oN |    |    |    |    |    | 3
  +----+----+----+----+----+----+----+----+
2 | oP | oP | oP | oP |    | oP | oP | oP | 2
  +----+----+----+----+----+----+----+----+
1 | oR |    | oB |    | oK | oB | oN | oR | 1
  +----+----+----+----+----+----+----+----+
    a    b    c    d    e    f    g   h

    a    b    c    d    e    f    g    h
  +----+----+----+----+----+----+----+----+
8 | mR | mN | mB | mQ | mK | mB |    | mR | 8
  +----+----+----+----+----+----+----+----+
7 |    | mP |    | mP | mP | mP | mP | mP | 7
  +----+----+----+----+----+----+----+----+
6 |    |    |    |    |    | mN |    |    | 6
  +----+----+----+----+----+----+----+----+
5 | mP |    | mP |    |    | oQ |    |    | 5
  +----+----+----+----+----+----+----+----+
4 |    |    |    |    | oP |    |    |    | 4
  +----+----+----+----+----+----+----+----+
3 |    |    | oN |    |    |    |    |    | 3
  +----+----+----+----+----+----+----+----+
2 | oP | oP | oP | oP |    | oP | oP | oP | 2
  +----+----+----+----+----+----+----+----+
1 | oR |    | oB |    | oK | oB | oN | oR | 1
  +----+----+----+----+----+----+----+----+
    a    b    c    d    e    f    g   h

random move: b8a6
Move written to championship/lizzie-iii-chess-ai/move.csv successfully!
eval: -664
qrbkqrbkqrbkqrbkResult
Move: c3b1, Score: -25
Move: c3d1, Score: -35
Move: c3a4, Score: -35
Move: f5h3, Score: -50
Move: f5h5, Score: -55
Move: e4e3, Score: -55
Move: e1e2, Score: -65
Move: f5g6, Score: -65
Move: f5g4, Score: -65
Move: c3b5, Score: -65
Move: c3e2, Score: -65
Move: f5g5, Score: -70
Move: f5f3, Score: -70
Move: f5f4, Score: -75
Move: f5e6, Score: -75
Move: a1b1, Score: -75
Move: e1d1, Score: -75
Move: f5e5, Score: -80
Move: f5d5, Score: -80
Move: f1e2, Score: -85
Move: f1a6, Score: -85
Move: c3d5, Score: -85
Move: g1h3, Score: -85
Move: f1b5, Score: -105
Move: f1d3, Score: -105
Move: f1c4, Score: -105
Move: g1e2, Score: -115
Move: g1f3, Score: -125
Move: f5h7, Score: -155
Move: f5c5, Score: -175
Move: b2b1k, Score: -225
Move: b2b1b, Score: -245
Move: d2d1k, Score: -265
Move: d2d1b, Score: -275
Move: f5f6, Score: -380
Move: b2b1r, Score: -465
Move: d2d1r, Score: -495
Move: b2b1q, Score: -855
Move: d2d1q, Score: -890
[32;1m[Game] [0mPlayer's error code: 0
[32;1m[Game] [0mChecking move validity...
[32;1m[Board] [0mInitializing board...
[32;1m[Board] [0mLoading history file `championship/lizzie-iii-chess-ai/history.csv`...
[32;1m[Board] [0mLoaded 7 move(s).
[32;1m[Board] [0mLoading move file `championship/lizzie-iii-chess-ai/move.csv`...
[32;1m[Board] [0mBlack player is playing b8 to a6.
[32;1m[Board] [0m
[32;1m[Board] [0m    a b c d e f g h 
[32;1m[Board] [0m  -------------------
[32;1m[Board] [0m8 ||[30;1mr[0m| |[30;1mb[0m|[30;1mQ[0m|[30;1mK[0m|[30;1mb[0m|[7;1m [0m|[30;1mr[0m|| 8
[32;1m[Board] [0m  -------------------
[32;1m[Board] [0m7 || |[30;1mp[0m| |[30;1mp[0m|[30;1mp[0m|[30;1mp[0m|[30;1mp[0m|[30;1mp[0m|| 7
[32;1m[Board] [0m  -------------------
[32;1m[Board] [0m6 ||[30;1mk[0m| |[7;1m [0m| |[7;1m [0m|[30;1mk[0m|[7;1m [0m| || 6
[32;1m[Board] [0m  -------------------
[32;1m[Board] [0m5 ||[30;1mp[0m|[7;1m [0m|[30;1mp[0m|[7;1m [0m| |[0;1mQ[0m| |[7;1m [0m|| 5
[32;1m[Board] [0m  -------------------
[32;1m[Board] [0m4 ||[7;1m [0m| |[7;1m [0m| |[0;1mp[0m| |[7;1m [0m| || 4
[32;1m[Board] [0m  -------------------
[32;1m[Board] [0m3 || |[7;1m [0m|[0;1mk[0m|[7;1m [0m| |[7;1m [0m| |[7;1m [0m|| 3
[32;1m[Board] [0m  -------------------
[32;1m[Board] [0m2 ||[0;1mp[0m|[0;1mp[0m|[0;1mp[0m|[0;1mp[0m|[7;1m [0m|[0;1mp[0m|[0;1mp[0m|[0;1mp[0m|| 2
[32;1m[Board] [0m  -------------------
[32;1m[Board] [0m1 ||[0;1mr[0m|[7;1m [0m|[0;1mb[0m|[7;1m [0m|[0;1mK[0m|[0;1mb[0m|[0;1mk[0m|[0;1mr[0m|| 1
[32;1m[Board] [0m  -------------------
[32;1m[Board] [0m    a b c d e f g h
[32;1m[Board] [0m
[32;1m[Referee] [0mThis is the turn of the White player...
Input file: championship/lizzie-iii-chess-ai/history.csv
Output file: championship/lizzie-iii-chess-ai/move.csv
We are playing as White
8 | [1;31mR[0m [1;30m_[0m [1;31mB[0m [1;31mQ[0m [1;31mK[0m [1;31mB[0m [1;30m_[0m [1;31mR[0m 
7 | [1;30m_[0m [1;31mP[0m [1;30m_[0m [1;31mP[0m [1;31mP[0m [1;31mP[0m [1;31mP[0m [1;31mP[0m 
6 | [1;31mN[0m [1;30m_[0m [1;30m_[0m [1;30m_[0m [1;30m_[0m [1;31mN[0m [1;30m_[0m [1;30m_[0m 
5 | [1;31mP[0m [1;30m_[0m [1;31mP[0m [1;30m_[0m [1;30m_[0m [1;32mQ[0m [1;30m_[0m [1;30m_[0m 
4 | [1;30m_[0m [1;30m_[0m [1;30m_[0m [1;30m_[0m [1;32mP[0m [1;30m_[0m [1;30m_[0m [1;30m_[0m 
3 | [1;30m_[0m [1;30m_[0m [1;32mN[0m [1;30m_[0m [1;30m_[0m [1;30m_[0m [1;30m_[0m [1;30m_[0m 
2 | [1;32mP[0m [1;32mP[0m [1;32mP[0m [1;32mP[0m [1;30m_[0m [1;32mP[0m [1;32mP[0m [1;32mP[0m 
1 | [1;32mR[0m [1;30m_[0m [1;32mB[0m [1;30m_[0m [1;32mK[0m [1;32mB[0m [1;32mN[0m [1;32mR[0m 
-------------------
  | A B C D E F G H 

It is white's turn to play.
Best move: f1a6
Evaluation: 255
Node count: 111534

Total time: 2617.16 ms
[32;1m[Game] [0mPlayer's error code: 0
[32;1m[Game] [0mChecking move validity...
[32;1m[Board] [0mInitializing board...
[32;1m[Board] [0mLoading history file `championship/lizzie-iii-chess-ai/history.csv`...
[32;1m[Board] [0mLoaded 8 move(s).
[32;1m[Board] [0mLoading move file `championship/lizzie-iii-chess-ai/move.csv`...
[32;1m[Board] [0mWhite player is playing f1 to a6.
[32;1m[Board] [0m[5;1mWhite Bishop is taking Black Knight.[0m
[32;1m[Board] [0m
[32;1m[Board] [0m    a b c d e f g h 
[32;1m[Board] [0m  -------------------
[32;1m[Board] [0m8 ||[30;1mr[0m| |[30;1mb[0m|[30;1mQ[0m|[30;1mK[0m|[30;1mb[0m|[7;1m [0m|[30;1mr[0m|| 8
[32;1m[Board] [0m  -------------------
[32;1m[Board] [0m7 || |[30;1mp[0m| |[30;1mp[0m|[30;1mp[0m|[30;1mp[0m|[30;1mp[0m|[30;1mp[0m|| 7
[32;1m[Board] [0m  -------------------
[32;1m[Board] [0m6 ||[0;1mb[0m| |[7;1m [0m| |[7;1m [0m|[30;1mk[0m|[7;1m [0m| || 6
[32;1m[Board] [0m  -------------------
[32;1m[Board] [0m5 ||[30;1mp[0m|[7;1m [0m|[30;1mp[0m|[7;1m [0m| |[0;1mQ[0m| |[7;1m [0m|| 5
[32;1m[Board] [0m  -------------------
[32;1m[Board] [0m4 ||[7;1m [0m| |[7;1m [0m| |[0;1mp[0m| |[7;1m [0m| || 4
[32;1m[Board] [0m  -------------------
[32;1m[Board] [0m3 || |[7;1m [0m|[0;1mk[0m|[7;1m [0m| |[7;1m [0m| |[7;1m [0m|| 3
[32;1m[Board] [0m  -------------------
[32;1m[Board] [0m2 ||[0;1mp[0m|[0;1mp[0m|[0;1mp[0m|[0;1mp[0m|[7;1m [0m|[0;1mp[0m|[0;1mp[0m|[0;1mp[0m|| 2
[32;1m[Board] [0m  -------------------
[32;1m[Board] [0m1 ||[0;1mr[0m|[7;1m [0m|[0;1mb[0m|[7;1m [0m|[0;1mK[0m|[7;1m [0m|[0;1mk[0m|[0;1mr[0m|| 1
[32;1m[Board] [0m  -------------------
[32;1m[Board] [0m    a b c d e f g h
[32;1m[Board] [0m
[32;1m[Referee] [0mThis is the turn of the Black player...
5    a    b    c    d    e    f    g    h
  +----+----+----+----+----+----+----+----+
8 | mR | mN | mB | mQ | mK | mB | mN | mR | 8
  +----+----+----+----+----+----+----+----+
7 | mP | mP | mP | mP | mP | mP | mP | mP | 7
  +----+----+----+----+----+----+----+----+
6 |    |    |    |    |    |    |    |    | 6
  +----+----+----+----+----+----+----+----+
5 |    |    |    |    |    |    |    |    | 5
  +----+----+----+----+----+----+----+----+
4 |    |    |    |    | oP |    |    |    | 4
  +----+----+----+----+----+----+----+----+
3 |    |    |    |    |    |    |    |    | 3
  +----+----+----+----+----+----+----+----+
2 | oP | oP | oP | oP |    | oP | oP | oP | 2
  +----+----+----+----+----+----+----+----+
1 | oR | oN | oB | oQ | oK | oB | oN | oR | 1
  +----+----+----+----+----+----+----+----+
    a    b    c    d    e    f    g   h

    a    b    c    d    e    f    g    h
  +----+----+----+----+----+----+----+----+
8 | mR | mN | mB | mQ | mK | mB | mN | mR | 8
  +----+----+----+----+----+----+----+----+
7 | mP | mP |    | mP | mP | mP | mP | mP | 7
  +----+----+----+----+----+----+----+----+
6 |    |    |    |    |    |    |    |    | 6
  +----+----+----+----+----+----+----+----+
5 |    |    | mP |    |    |    |    |    | 5
  +----+----+----+----+----+----+----+----+
4 |    |    |    |    | oP |    |    |    | 4
  +----+----+----+----+----+----+----+----+
3 |    |    |    |    |    |    |    |    | 3
  +----+----+----+----+----+----+----+----+
2 | oP | oP | oP | oP |    | oP | oP | oP | 2
  +----+----+----+----+----+----+----+----+
1 | oR | oN | oB | oQ | oK | oB | oN | oR | 1
  +----+----+----+----+----+----+----+----+
    a    b    c    d    e    f    g   h

    a    b    c    d    e    f    g    h
  +----+----+----+----+----+----+----+----+
8 | mR | mN | mB | mQ | mK | mB | mN | mR | 8
  +----+----+----+----+----+----+----+----+
7 | mP | mP |    | mP | mP | mP | mP | mP | 7
  +----+----+----+----+----+----+----+----+
6 |    |    |    |    |    |    |    |    | 6
  +----+----+----+----+----+----+----+----+
5 |    |    | mP |    |    |    |    |    | 5
  +----+----+----+----+----+----+----+----+
4 |    |    |    |    | oP |    |    |    | 4
  +----+----+----+----+----+----+----+----+
3 |    |    | oN |    |    |    |    |    | 3
  +----+----+----+----+----+----+----+----+
2 | oP | oP | oP | oP |    | oP | oP | oP | 2
  +----+----+----+----+----+----+----+----+
1 | oR |    | oB | oQ | oK | oB | oN | oR | 1
  +----+----+----+----+----+----+----+----+
    a    b    c    d    e    f    g   h

    a    b    c    d    e    f    g    h
  +----+----+----+----+----+----+----+----+
8 | mR | mN | mB | mQ | mK | mB |    | mR | 8
  +----+----+----+----+----+----+----+----+
7 | mP | mP |    | mP | mP | mP | mP | mP | 7
  +----+----+----+----+----+----+----+----+
6 |    |    |    |    |    | mN |    |    | 6
  +----+----+----+----+----+----+----+----+
5 |    |    | mP |    |    |    |    |    | 5
  +----+----+----+----+----+----+----+----+
4 |    |    |    |    | oP |    |    |    | 4
  +----+----+----+----+----+----+----+----+
3 |    |    | oN |    |    |    |    |    | 3
  +----+----+----+----+----+----+----+----+
2 | oP | oP | oP | oP |    | oP | oP | oP | 2
  +----+----+----+----+----+----+----+----+
1 | oR |    | oB | oQ | oK | oB | oN | oR | 1
  +----+----+----+----+----+----+----+----+
    a    b    c    d    e    f    g   h

    a    b    c    d    e    f    g    h
  +----+----+----+----+----+----+----+----+
8 | mR | mN | mB | mQ | mK | mB |    | mR | 8
  +----+----+----+----+----+----+----+----+
7 | mP | mP |    | mP | mP | mP | mP | mP | 7
  +----+----+----+----+----+----+----+----+
6 |    |    |    |    |    | mN |    |    | 6
  +----+----+----+----+----+----+----+----+
5 |    |    | mP |    |    |    |    |    | 5
  +----+----+----+----+----+----+----+----+
4 |    |    |    |    | oP |    |    |    | 4
  +----+----+----+----+----+----+----+----+
3 |    |    | oN |    |    | oQ |    |    | 3
  +----+----+----+----+----+----+----+----+
2 | oP | oP | oP | oP |    | oP | oP | oP | 2
  +----+----+----+----+----+----+----+----+
1 | oR |    | oB |    | oK | oB | oN | oR | 1
  +----+----+----+----+----+----+----+----+
    a    b    c    d    e    f    g   h

    a    b    c    d    e    f    g    h
  +----+----+----+----+----+----+----+----+
8 | mR | mN | mB | mQ | mK | mB |    | mR | 8
  +----+----+----+----+----+----+----+----+
7 |    | mP |    | mP | mP | mP | mP | mP | 7
  +----+----+----+----+----+----+----+----+
6 |    |    |    |    |    | mN |    |    | 6
  +----+----+----+----+----+----+----+----+
5 | mP |    | mP |    |    |    |    |    | 5
  +----+----+----+----+----+----+----+----+
4 |    |    |    |    | oP |    |    |    | 4
  +----+----+----+----+----+----+----+----+
3 |    |    | oN |    |    | oQ |    |    | 3
  +----+----+----+----+----+----+----+----+
2 | oP | oP | oP | oP |    | oP | oP | oP | 2
  +----+----+----+----+----+----+----+----+
1 | oR |    | oB |    | oK | oB | oN | oR | 1
  +----+----+----+----+----+----+----+----+
    a    b    c    d    e    f    g   h

    a    b    c    d    e    f    g    h
  +----+----+----+----+----+----+----+----+
8 | mR | mN | mB | mQ | mK | mB |    | mR | 8
  +----+----+----+----+----+----+----+----+
7 |    | mP |    | mP | mP | mP | mP | mP | 7
  +----+----+----+----+----+----+----+----+
6 |    |    |    |    |    | mN |    |    | 6
  +----+----+----+----+----+----+----+----+
5 | mP |    | mP |    |    | oQ |    |    | 5
  +----+----+----+----+----+----+----+----+
4 |    |    |    |    | oP |    |    |    | 4
  +----+----+----+----+----+----+----+----+
3 |    |    | oN |    |    |    |    |    | 3
  +----+----+----+----+----+----+----+----+
2 | oP | oP | oP | oP |    | oP | oP | oP | 2
  +----+----+----+----+----+----+----+----+
1 | oR |    | oB |    | oK | oB | oN | oR | 1
  +----+----+----+----+----+----+----+----+
    a    b    c    d    e    f    g   h

    a    b    c    d    e    f    g    h
  +----+----+----+----+----+----+----+----+
8 | mR |    | mB | mQ | mK | mB |    | mR | 8
  +----+----+----+----+----+----+----+----+
7 |    | mP |    | mP | mP | mP | mP | mP | 7
  +----+----+----+----+----+----+----+----+
6 | mN |    |    |    |    | mN |    |    | 6
  +----+----+----+----+----+----+----+----+
5 | mP |    | mP |    |    | oQ |    |    | 5
  +----+----+----+----+----+----+----+----+
4 |    |    |    |    | oP |    |    |    | 4
  +----+----+----+----+----+----+----+----+
3 |    |    | oN |    |    |    |    |    | 3
  +----+----+----+----+----+----+----+----+
2 | oP | oP | oP | oP |    | oP | oP | oP | 2
  +----+----+----+----+----+----+----+----+
1 | oR |    | oB |    | oK | oB | oN | oR | 1
  +----+----+----+----+----+----+----+----+
    a    b    c    d    e    f    g   h

    a    b    c    d    e    f    g    h
  +----+----+----+----+----+----+----+----+
8 | mR |    | mB | mQ | mK | mB |    | mR | 8
  +----+----+----+----+----+----+----+----+
7 |    | mP |    | mP | mP | mP | mP | mP | 7
  +----+----+----+----+----+----+----+----+
6 | oB |    |    |    |    | mN |    |    | 6
  +----+----+----+----+----+----+----+----+
5 | mP |    | mP |    |    | oQ |    |    | 5
  +----+----+----+----+----+----+----+----+
4 |    |    |    |    | oP |    |    |    | 4
  +----+----+----+----+----+----+----+----+
3 |    |    | oN |    |    |    |    |    | 3
  +----+----+----+----+----+----+----+----+
2 | oP | oP | oP | oP |    | oP | oP | oP | 2
  +----+----+----+----+----+----+----+----+
1 | oR |    | oB |    | oK |    | oN | oR | 1
  +----+----+----+----+----+----+----+----+
    a    b    c    d    e    f    g   h

    a    b    c    d    e    f    g    h
  +----+----+----+----+----+----+----+----+
8 | mR |    | mB | mQ | mK | mB |    | mR | 8
  +----+----+----+----+----+----+----+----+
7 |    | mP |    | mP | mP | mP | mP | mP | 7
  +----+----+----+----+----+----+----+----+
6 | oB |    |    |    |    | mN |    |    | 6
  +----+----+----+----+----+----+----+----+
5 | mP |    | mP |    |    | oQ |    |    | 5
  +----+----+----+----+----+----+----+----+
4 |    |    |    |    | oP |    |    |    | 4
  +----+----+----+----+----+----+----+----+
3 |    |    | oN |    |    |    |    |    | 3
  +----+----+----+----+----+----+----+----+
2 | oP | oP | oP | oP |    | oP | oP | oP | 2
  +----+----+----+----+----+----+----+----+
1 | oR |    | oB |    | oK |    | oN | oR | 1
  +----+----+----+----+----+----+----+----+
    a    b    c    d    e    f    g   h

random move: f6h5
Move written to championship/lizzie-iii-chess-ai/move.csv successfully!
eval: -963
qrbkqrbkqrbkqrbkqrbkqrbkResult
Move: c3b1, Score: -295
Move: c3a4, Score: -305
Move: c3d1, Score: -305
Move: f5h3, Score: -320
Move: f5h5, Score: -325
Move: e4e3, Score: -325
Move: e1e2, Score: -335
Move: a6f1, Score: -335
Move: f5g6, Score: -335
Move: c3b5, Score: -335
Move: c3e2, Score: -335
Move: f5g4, Score: -335
Move: f5f3, Score: -340
Move: f5g5, Score: -340
Move: a1b1, Score: -345
Move: a6e2, Score: -345
Move: e1d1, Score: -345
Move: f5f4, Score: -345
Move: e1f1, Score: -345
Move: f5e6, Score: -345
Move: f5e5, Score: -350
Move: f5d5, Score: -350
Move: g1h3, Score: -355
Move: c3d5, Score: -355
Move: a6b5, Score: -365
Move: a6c4, Score: -365
Move: a6d3, Score: -365
Move: g1e2, Score: -385
Move: g1f3, Score: -395
Move: f5h7, Score: -425
Move: f5c5, Score: -445
Move: a6b7, Score: -465
Move: b2b1k, Score: -495
Move: f2f1k, Score: -505
Move: f2f1b, Score: -515
Move: b2b1b, Score: -515
Move: d2d1k, Score: -535
Move: d2d1b, Score: -545
Move: f5f6, Score: -650
Move: f2f1r, Score: -735
Move: b2b1r, Score: -735
Move: d2d1r, Score: -765
Move: b2b1q, Score: -1125
Move: f2f1q, Score: -1125
Move: d2d1q, Score: -1160
[32;1m[Game] [0mPlayer's error code: 0
[32;1m[Game] [0mChecking move validity...
[32;1m[Board] [0mInitializing board...
[32;1m[Board] [0mLoading history file `championship/lizzie-iii-chess-ai/history.csv`...
[32;1m[Board] [0mLoaded 9 move(s).
[32;1m[Board] [0mLoading move file `championship/lizzie-iii-chess-ai/move.csv`...
[32;1m[Board] [0mBlack player is playing f6 to h5.
[32;1m[Board] [0m
[32;1m[Board] [0m    a b c d e f g h 
[32;1m[Board] [0m  -------------------
[32;1m[Board] [0m8 ||[30;1mr[0m| |[30;1mb[0m|[30;1mQ[0m|[30;1mK[0m|[30;1mb[0m|[7;1m [0m|[30;1mr[0m|| 8
[32;1m[Board] [0m  -------------------
[32;1m[Board] [0m7 || |[30;1mp[0m| |[30;1mp[0m|[30;1mp[0m|[30;1mp[0m|[30;1mp[0m|[30;1mp[0m|| 7
[32;1m[Board] [0m  -------------------
[32;1m[Board] [0m6 ||[0;1mb[0m| |[7;1m [0m| |[7;1m [0m| |[7;1m [0m| || 6
[32;1m[Board] [0m  -------------------
[32;1m[Board] [0m5 ||[30;1mp[0m|[7;1m [0m|[30;1mp[0m|[7;1m [0m| |[0;1mQ[0m| |[30;1mk[0m|| 5
[32;1m[Board] [0m  -------------------
[32;1m[Board] [0m4 ||[7;1m [0m| |[7;1m [0m| |[0;1mp[0m| |[7;1m [0m| || 4
[32;1m[Board] [0m  -------------------
[32;1m[Board] [0m3 || |[7;1m [0m|[0;1mk[0m|[7;1m [0m| |[7;1m [0m| |[7;1m [0m|| 3
[32;1m[Board] [0m  -------------------
[32;1m[Board] [0m2 ||[0;1mp[0m|[0;1mp[0m|[0;1mp[0m|[0;1mp[0m|[7;1m [0m|[0;1mp[0m|[0;1mp[0m|[0;1mp[0m|| 2
[32;1m[Board] [0m  -------------------
[32;1m[Board] [0m1 ||[0;1mr[0m|[7;1m [0m|[0;1mb[0m|[7;1m [0m|[0;1mK[0m|[7;1m [0m|[0;1mk[0m|[0;1mr[0m|| 1
[32;1m[Board] [0m  -------------------
[32;1m[Board] [0m    a b c d e f g h
[32;1m[Board] [0m
[32;1m[Referee] [0mThis is the turn of the White player...
Input file: championship/lizzie-iii-chess-ai/history.csv
Output file: championship/lizzie-iii-chess-ai/move.csv
We are playing as White
8 | [1;31mR[0m [1;30m_[0m [1;31mB[0m [1;31mQ[0m [1;31mK[0m [1;31mB[0m [1;30m_[0m [1;31mR[0m 
7 | [1;30m_[0m [1;31mP[0m [1;30m_[0m [1;31mP[0m [1;31mP[0m [1;31mP[0m [1;31mP[0m [1;31mP[0m 
6 | [1;32mB[0m [1;30m_[0m [1;30m_[0m [1;30m_[0m [1;30m_[0m [1;30m_[0m [1;30m_[0m [1;30m_[0m 
5 | [1;31mP[0m [1;30m_[0m [1;31mP[0m [1;30m_[0m [1;30m_[0m [1;32mQ[0m [1;30m_[0m [1;31mN[0m 
4 | [1;30m_[0m [1;30m_[0m [1;30m_[0m [1;30m_[0m [1;32mP[0m [1;30m_[0m [1;30m_[0m [1;30m_[0m 
3 | [1;30m_[0m [1;30m_[0m [1;32mN[0m [1;30m_[0m [1;30m_[0m [1;30m_[0m [1;30m_[0m [1;30m_[0m 
2 | [1;32mP[0m [1;32mP[0m [1;32mP[0m [1;32mP[0m [1;30m_[0m [1;32mP[0m [1;32mP[0m [1;32mP[0m 
1 | [1;32mR[0m [1;30m_[0m [1;32mB[0m [1;30m_[0m [1;32mK[0m [1;30m_[0m [1;32mN[0m [1;32mR[0m 
-------------------
  | A B C D E F G H 

It is white's turn to play.
Best move: a6b5
Evaluation: 695
Node count: 96913

Total time: 2251.33 ms
[32;1m[Game] [0mPlayer's error code: 0
[32;1m[Game] [0mChecking move validity...
[32;1m[Board] [0mInitializing board...
[32;1m[Board] [0mLoading history file `championship/lizzie-iii-chess-ai/history.csv`...
[32;1m[Board] [0mLoaded 10 move(s).
[32;1m[Board] [0mLoading move file `championship/lizzie-iii-chess-ai/move.csv`...
[32;1m[Board] [0mWhite player is playing a6 to b5.
[32;1m[Board] [0m
[32;1m[Board] [0m    a b c d e f g h 
[32;1m[Board] [0m  -------------------
[32;1m[Board] [0m8 ||[30;1mr[0m| |[30;1mb[0m|[30;1mQ[0m|[30;1mK[0m|[30;1mb[0m|[7;1m [0m|[30;1mr[0m|| 8
[32;1m[Board] [0m  -------------------
[32;1m[Board] [0m7 || |[30;1mp[0m| |[30;1mp[0m|[30;1mp[0m|[30;1mp[0m|[30;1mp[0m|[30;1mp[0m|| 7
[32;1m[Board] [0m  -------------------
[32;1m[Board] [0m6 ||[7;1m [0m| |[7;1m [0m| |[7;1m [0m| |[7;1m [0m| || 6
[32;1m[Board] [0m  -------------------
[32;1m[Board] [0m5 ||[30;1mp[0m|[0;1mb[0m|[30;1mp[0m|[7;1m [0m| |[0;1mQ[0m| |[30;1mk[0m|| 5
[32;1m[Board] [0m  -------------------
[32;1m[Board] [0m4 ||[7;1m [0m| |[7;1m [0m| |[0;1mp[0m| |[7;1m [0m| || 4
[32;1m[Board] [0m  -------------------
[32;1m[Board] [0m3 || |[7;1m [0m|[0;1mk[0m|[7;1m [0m| |[7;1m [0m| |[7;1m [0m|| 3
[32;1m[Board] [0m  -------------------
[32;1m[Board] [0m2 ||[0;1mp[0m|[0;1mp[0m|[0;1mp[0m|[0;1mp[0m|[7;1m [0m|[0;1mp[0m|[0;1mp[0m|[0;1mp[0m|| 2
[32;1m[Board] [0m  -------------------
[32;1m[Board] [0m1 ||[0;1mr[0m|[7;1m [0m|[0;1mb[0m|[7;1m [0m|[0;1mK[0m|[7;1m [0m|[0;1mk[0m|[0;1mr[0m|| 1
[32;1m[Board] [0m  -------------------
[32;1m[Board] [0m    a b c d e f g h
[32;1m[Board] [0m
[32;1m[Referee] [0mThis is the turn of the Black player...
5    a    b    c    d    e    f    g    h
  +----+----+----+----+----+----+----+----+
8 | mR | mN | mB | mQ | mK | mB | mN | mR | 8
  +----+----+----+----+----+----+----+----+
7 | mP | mP | mP | mP | mP | mP | mP | mP | 7
  +----+----+----+----+----+----+----+----+
6 |    |    |    |    |    |    |    |    | 6
  +----+----+----+----+----+----+----+----+
5 |    |    |    |    |    |    |    |    | 5
  +----+----+----+----+----+----+----+----+
4 |    |    |    |    | oP |    |    |    | 4
  +----+----+----+----+----+----+----+----+
3 |    |    |    |    |    |    |    |    | 3
  +----+----+----+----+----+----+----+----+
2 | oP | oP | oP | oP |    | oP | oP | oP | 2
  +----+----+----+----+----+----+----+----+
1 | oR | oN | oB | oQ | oK | oB | oN | oR | 1
  +----+----+----+----+----+----+----+----+
    a    b    c    d    e    f    g   h

    a    b    c    d    e    f    g    h
  +----+----+----+----+----+----+----+----+
8 | mR | mN | mB | mQ | mK | mB | mN | mR | 8
  +----+----+----+----+----+----+----+----+
7 | mP | mP |    | mP | mP | mP | mP | mP | 7
  +----+----+----+----+----+----+----+----+
6 |    |    |    |    |    |    |    |    | 6
  +----+----+----+----+----+----+----+----+
5 |    |    | mP |    |    |    |    |    | 5
  +----+----+----+----+----+----+----+----+
4 |    |    |    |    | oP |    |    |    | 4
  +----+----+----+----+----+----+----+----+
3 |    |    |    |    |    |    |    |    | 3
  +----+----+----+----+----+----+----+----+
2 | oP | oP | oP | oP |    | oP | oP | oP | 2
  +----+----+----+----+----+----+----+----+
1 | oR | oN | oB | oQ | oK | oB | oN | oR | 1
  +----+----+----+----+----+----+----+----+
    a    b    c    d    e    f    g   h

    a    b    c    d    e    f    g    h
  +----+----+----+----+----+----+----+----+
8 | mR | mN | mB | mQ | mK | mB | mN | mR | 8
  +----+----+----+----+----+----+----+----+
7 | mP | mP |    | mP | mP | mP | mP | mP | 7
  +----+----+----+----+----+----+----+----+
6 |    |    |    |    |    |    |    |    | 6
  +----+----+----+----+----+----+----+----+
5 |    |    | mP |    |    |    |    |    | 5
  +----+----+----+----+----+----+----+----+
4 |    |    |    |    | oP |    |    |    | 4
  +----+----+----+----+----+----+----+----+
3 |    |    | oN |    |    |    |    |    | 3
  +----+----+----+----+----+----+----+----+
2 | oP | oP | oP | oP |    | oP | oP | oP | 2
  +----+----+----+----+----+----+----+----+
1 | oR |    | oB | oQ | oK | oB | oN | oR | 1
  +----+----+----+----+----+----+----+----+
    a    b    c    d    e    f    g   h

    a    b    c    d    e    f    g    h
  +----+----+----+----+----+----+----+----+
8 | mR | mN | mB | mQ | mK | mB |    | mR | 8
  +----+----+----+----+----+----+----+----+
7 | mP | mP |    | mP | mP | mP | mP | mP | 7
  +----+----+----+----+----+----+----+----+
6 |    |    |    |    |    | mN |    |    | 6
  +----+----+----+----+----+----+----+----+
5 |    |    | mP |    |    |    |    |    | 5
  +----+----+----+----+----+----+----+----+
4 |    |    |    |    | oP |    |    |    | 4
  +----+----+----+----+----+----+----+----+
3 |    |    | oN |    |    |    |    |    | 3
  +----+----+----+----+----+----+----+----+
2 | oP | oP | oP | oP |    | oP | oP | oP | 2
  +----+----+----+----+----+----+----+----+
1 | oR |    | oB | oQ | oK | oB | oN | oR | 1
  +----+----+----+----+----+----+----+----+
    a    b    c    d    e    f    g   h

    a    b    c    d    e    f    g    h
  +----+----+----+----+----+----+----+----+
8 | mR | mN | mB | mQ | mK | mB |    | mR | 8
  +----+----+----+----+----+----+----+----+
7 | mP | mP |    | mP | mP | mP | mP | mP | 7
  +----+----+----+----+----+----+----+----+
6 |    |    |    |    |    | mN |    |    | 6
  +----+----+----+----+----+----+----+----+
5 |    |    | mP |    |    |    |    |    | 5
  +----+----+----+----+----+----+----+----+
4 |    |    |    |    | oP |    |    |    | 4
  +----+----+----+----+----+----+----+----+
3 |    |    | oN |    |    | oQ |    |    | 3
  +----+----+----+----+----+----+----+----+
2 | oP | oP | oP | oP |    | oP | oP | oP | 2
  +----+----+----+----+----+----+----+----+
1 | oR |    | oB |    | oK | oB | oN | oR | 1
  +----+----+----+----+----+----+----+----+
    a    b    c    d    e    f    g   h

    a    b    c    d    e    f    g    h
  +----+----+----+----+----+----+----+----+
8 | mR | mN | mB | mQ | mK | mB |    | mR | 8
  +----+----+----+----+----+----+----+----+
7 |    | mP |    | mP | mP | mP | mP | mP | 7
  +----+----+----+----+----+----+----+----+
6 |    |    |    |    |    | mN |    |    | 6
  +----+----+----+----+----+----+----+----+
5 | mP |    | mP |    |    |    |    |    | 5
  +----+----+----+----+----+----+----+----+
4 |    |    |    |    | oP |    |    |    | 4
  +----+----+----+----+----+----+----+----+
3 |    |    | oN |    |    | oQ |    |    | 3
  +----+----+----+----+----+----+----+----+
2 | oP | oP | oP | oP |    | oP | oP | oP | 2
  +----+----+----+----+----+----+----+----+
1 | oR |    | oB |    | oK | oB | oN | oR | 1
  +----+----+----+----+----+----+----+----+
    a    b    c    d    e    f    g   h

    a    b    c    d    e    f    g    h
  +----+----+----+----+----+----+----+----+
8 | mR | mN | mB | mQ | mK | mB |    | mR | 8
  +----+----+----+----+----+----+----+----+
7 |    | mP |    | mP | mP | mP | mP | mP | 7
  +----+----+----+----+----+----+----+----+
6 |    |    |    |    |    | mN |    |    | 6
  +----+----+----+----+----+----+----+----+
5 | mP |    | mP |    |    | oQ |    |    | 5
  +----+----+----+----+----+----+----+----+
4 |    |    |    |    | oP |    |    |    | 4
  +----+----+----+----+----+----+----+----+
3 |    |    | oN |    |    |    |    |    | 3
  +----+----+----+----+----+----+----+----+
2 | oP | oP | oP | oP |    | oP | oP | oP | 2
  +----+----+----+----+----+----+----+----+
1 | oR |    | oB |    | oK | oB | oN | oR | 1
  +----+----+----+----+----+----+----+----+
    a    b    c    d    e    f    g   h

    a    b    c    d    e    f    g    h
  +----+----+----+----+----+----+----+----+
8 | mR |    | mB | mQ | mK | mB |    | mR | 8
  +----+----+----+----+----+----+----+----+
7 |    | mP |    | mP | mP | mP | mP | mP | 7
  +----+----+----+----+----+----+----+----+
6 | mN |    |    |    |    | mN |    |    | 6
  +----+----+----+----+----+----+----+----+
5 | mP |    | mP |    |    | oQ |    |    | 5
  +----+----+----+----+----+----+----+----+
4 |    |    |    |    | oP |    |    |    | 4
  +----+----+----+----+----+----+----+----+
3 |    |    | oN |    |    |    |    |    | 3
  +----+----+----+----+----+----+----+----+
2 | oP | oP | oP | oP |    | oP | oP | oP | 2
  +----+----+----+----+----+----+----+----+
1 | oR |    | oB |    | oK | oB | oN | oR | 1
  +----+----+----+----+----+----+----+----+
    a    b    c    d    e    f    g   h

    a    b    c    d    e    f    g    h
  +----+----+----+----+----+----+----+----+
8 | mR |    | mB | mQ | mK | mB |    | mR | 8
  +----+----+----+----+----+----+----+----+
7 |    | mP |    | mP | mP | mP | mP | mP | 7
  +----+----+----+----+----+----+----+----+
6 | oB |    |    |    |    | mN |    |    | 6
  +----+----+----+----+----+----+----+----+
5 | mP |    | mP |    |    | oQ |    |    | 5
  +----+----+----+----+----+----+----+----+
4 |    |    |    |    | oP |    |    |    | 4
  +----+----+----+----+----+----+----+----+
3 |    |    | oN |    |    |    |    |    | 3
  +----+----+----+----+----+----+----+----+
2 | oP | oP | oP | oP |    | oP | oP | oP | 2
  +----+----+----+----+----+----+----+----+
1 | oR |    | oB |    | oK |    | oN | oR | 1
  +----+----+----+----+----+----+----+----+
    a    b    c    d    e    f    g   h

    a    b    c    d    e    f    g    h
  +----+----+----+----+----+----+----+----+
8 | mR |    | mB | mQ | mK | mB |    | mR | 8
  +----+----+----+----+----+----+----+----+
7 |    | mP |    | mP | mP | mP | mP | mP | 7
  +----+----+----+----+----+----+----+----+
6 | oB |    |    |    |    |    |    |    | 6
  +----+----+----+----+----+----+----+----+
5 | mP |    | mP |    |    | oQ |    | mN | 5
  +----+----+----+----+----+----+----+----+
4 |    |    |    |    | oP |    |    |    | 4
  +----+----+----+----+----+----+----+----+
3 |    |    | oN |    |    |    |    |    | 3
  +----+----+----+----+----+----+----+----+
2 | oP | oP | oP | oP |    | oP | oP | oP | 2
  +----+----+----+----+----+----+----+----+
1 | oR |    | oB |    | oK |    | oN | oR | 1
  +----+----+----+----+----+----+----+----+
    a    b    c    d    e    f    g   h

    a    b    c    d    e    f    g    h
  +----+----+----+----+----+----+----+----+
8 | mR |    | mB | mQ | mK | mB |    | mR | 8
  +----+----+----+----+----+----+----+----+
7 |    | mP |    | mP | mP | mP | mP | mP | 7
  +----+----+----+----+----+----+----+----+
6 |    |    |    |    |    |    |    |    | 6
  +----+----+----+----+----+----+----+----+
5 | mP | oB | mP |    |    | oQ |    | mN | 5
  +----+----+----+----+----+----+----+----+
4 |    |    |    |    | oP |    |    |    | 4
  +----+----+----+----+----+----+----+----+
3 |    |    | oN |    |    |    |    |    | 3
  +----+----+----+----+----+----+----+----+
2 | oP | oP | oP | oP |    | oP | oP | oP | 2
  +----+----+----+----+----+----+----+----+
1 | oR |    | oB |    | oK |    | oN | oR | 1
  +----+----+----+----+----+----+----+----+
    a    b    c    d    e    f    g   h

    a    b    c    d    e    f    g    h
  +----+----+----+----+----+----+----+----+
8 | mR |    | mB | mQ | mK | mB |    | mR | 8
  +----+----+----+----+----+----+----+----+
7 |    | mP |    | mP | mP | mP | mP | mP | 7
  +----+----+----+----+----+----+----+----+
6 |    |    |    |    |    |    |    |    | 6
  +----+----+----+----+----+----+----+----+
5 | mP | oB | mP |    |    | oQ |    | mN | 5
  +----+----+----+----+----+----+----+----+
4 |    |    |    |    | oP |    |    |    | 4
  +----+----+----+----+----+----+----+----+
3 |    |    | oN |    |    |    |    |    | 3
  +----+----+----+----+----+----+----+----+
2 | oP | oP | oP | oP |    | oP | oP | oP | 2
  +----+----+----+----+----+----+----+----+
1 | oR |    | oB |    | oK |    | oN | oR | 1
  +----+----+----+----+----+----+----+----+
    a    b    c    d    e    f    g   h

random move: g7g6
Move written to championship/lizzie-iii-chess-ai/move.csv successfully!
eval: -1131
qrbkqrbkqrbkqrbkqrbkqrbkResult
Move: c3b1, Score: -355
Move: c3a4, Score: -365
Move: c3d1, Score: -365
Move: b5f1, Score: -375
Move: f5h3, Score: -380
Move: b5a6, Score: -385
Move: b5e2, Score: -385
Move: e4e3, Score: -385
Move: b5a4, Score: -385
Move: e1e2, Score: -395
Move: c3e2, Score: -395
Move: f5g6, Score: -395
Move: f5g4, Score: -395
Move: f5f6, Score: -400
Move: f5f3, Score: -400
Move: f5g5, Score: -400
Move: f5e6, Score: -405
Move: f5f4, Score: -405
Move: e1d1, Score: -405
Move: e1f1, Score: -405
Move: b5d3, Score: -405
Move: b5c4, Score: -405
Move: b5c6, Score: -405
Move: a1b1, Score: -405
Move: f5d5, Score: -410
Move: f5e5, Score: -410
Move: g1h3, Score: -415
Move: c3d5, Score: -415
Move: g1e2, Score: -445
Move: g1f3, Score: -455
Move: f5h7, Score: -485
Move: f5c5, Score: -505
Move: b2b1k, Score: -555
Move: f2f1k, Score: -565
Move: f2f1b, Score: -575
Move: b2b1b, Score: -575
Move: d2d1k, Score: -595
Move: d2d1b, Score: -605
Move: f5h5, Score: -655
Move: f2f1r, Score: -795
Move: b2b1r, Score: -795
Move: d2d1r, Score: -825
Move: b2b1q, Score: -1185
Move: f2f1q, Score: -1185
Move: d2d1q, Score: -1220
[32;1m[Game] [0mPlayer's error code: 0
[32;1m[Game] [0mChecking move validity...
[32;1m[Board] [0mInitializing board...
[32;1m[Board] [0mLoading history file `championship/lizzie-iii-chess-ai/history.csv`...
[32;1m[Board] [0mLoaded 11 move(s).
[32;1m[Board] [0mLoading move file `championship/lizzie-iii-chess-ai/move.csv`...
[32;1m[Board] [0mBlack player is playing g7 to g6.
[32;1m[Board] [0m
[32;1m[Board] [0m    a b c d e f g h 
[32;1m[Board] [0m  -------------------
[32;1m[Board] [0m8 ||[30;1mr[0m| |[30;1mb[0m|[30;1mQ[0m|[30;1mK[0m|[30;1mb[0m|[7;1m [0m|[30;1mr[0m|| 8
[32;1m[Board] [0m  -------------------
[32;1m[Board] [0m7 || |[30;1mp[0m| |[30;1mp[0m|[30;1mp[0m|[30;1mp[0m| |[30;1mp[0m|| 7
[32;1m[Board] [0m  -------------------
[32;1m[Board] [0m6 ||[7;1m [0m| |[7;1m [0m| |[7;1m [0m| |[30;1mp[0m| || 6
[32;1m[Board] [0m  -------------------
[32;1m[Board] [0m5 ||[30;1mp[0m|[0;1mb[0m|[30;1mp[0m|[7;1m [0m| |[0;1mQ[0m| |[30;1mk[0m|| 5
[32;1m[Board] [0m  -------------------
[32;1m[Board] [0m4 ||[7;1m [0m| |[7;1m [0m| |[0;1mp[0m| |[7;1m [0m| || 4
[32;1m[Board] [0m  -------------------
[32;1m[Board] [0m3 || |[7;1m [0m|[0;1mk[0m|[7;1m [0m| |[7;1m [0m| |[7;1m [0m|| 3
[32;1m[Board] [0m  -------------------
[32;1m[Board] [0m2 ||[0;1mp[0m|[0;1mp[0m|[0;1mp[0m|[0;1mp[0m|[7;1m [0m|[0;1mp[0m|[0;1mp[0m|[0;1mp[0m|| 2
[32;1m[Board] [0m  -------------------
[32;1m[Board] [0m1 ||[0;1mr[0m|[7;1m [0m|[0;1mb[0m|[7;1m [0m|[0;1mK[0m|[7;1m [0m|[0;1mk[0m|[0;1mr[0m|| 1
[32;1m[Board] [0m  -------------------
[32;1m[Board] [0m    a b c d e f g h
[32;1m[Board] [0m
[32;1m[Referee] [0mThis is the turn of the White player...
Input file: championship/lizzie-iii-chess-ai/history.csv
Output file: championship/lizzie-iii-chess-ai/move.csv
We are playing as White
8 | [1;31mR[0m [1;30m_[0m [1;31mB[0m [1;31mQ[0m [1;31mK[0m [1;31mB[0m [1;30m_[0m [1;31mR[0m 
7 | [1;30m_[0m [1;31mP[0m [1;30m_[0m [1;31mP[0m [1;31mP[0m [1;31mP[0m [1;30m_[0m [1;31mP[0m 
6 | [1;30m_[0m [1;30m_[0m [1;30m_[0m [1;30m_[0m [1;30m_[0m [1;30m_[0m [1;31mP[0m [1;30m_[0m 
5 | [1;31mP[0m [1;32mB[0m [1;31mP[0m [1;30m_[0m [1;30m_[0m [1;32mQ[0m [1;30m_[0m [1;31mN[0m 
4 | [1;30m_[0m [1;30m_[0m [1;30m_[0m [1;30m_[0m [1;32mP[0m [1;30m_[0m [1;30m_[0m [1;30m_[0m 
3 | [1;30m_[0m [1;30m_[0m [1;32mN[0m [1;30m_[0m [1;30m_[0m [1;30m_[0m [1;30m_[0m [1;30m_[0m 
2 | [1;32mP[0m [1;32mP[0m [1;32mP[0m [1;32mP[0m [1;30m_[0m [1;32mP[0m [1;32mP[0m [1;32mP[0m 
1 | [1;32mR[0m [1;30m_[0m [1;32mB[0m [1;30m_[0m [1;32mK[0m [1;30m_[0m [1;32mN[0m [1;32mR[0m 
-------------------
  | A B C D E F G H 

It is white's turn to play.
Best move: f5c5
Evaluation: 730
Node count: 76531

Total time: 1607.08 ms
[32;1m[Game] [0mPlayer's error code: 0
[32;1m[Game] [0mChecking move validity...
[32;1m[Board] [0mInitializing board...
[32;1m[Board] [0mLoading history file `championship/lizzie-iii-chess-ai/history.csv`...
[32;1m[Board] [0mLoaded 12 move(s).
[32;1m[Board] [0mLoading move file `championship/lizzie-iii-chess-ai/move.csv`...
[32;1m[Board] [0mWhite player is playing f5 to c5.
[32;1m[Board] [0m[5;1mWhite Queen is taking Black Pawn.[0m
[32;1m[Board] [0m
[32;1m[Board] [0m    a b c d e f g h 
[32;1m[Board] [0m  -------------------
[32;1m[Board] [0m8 ||[30;1mr[0m| |[30;1mb[0m|[30;1mQ[0m|[30;1mK[0m|[30;1mb[0m|[7;1m [0m|[30;1mr[0m|| 8
[32;1m[Board] [0m  -------------------
[32;1m[Board] [0m7 || |[30;1mp[0m| |[30;1mp[0m|[30;1mp[0m|[30;1mp[0m| |[30;1mp[0m|| 7
[32;1m[Board] [0m  -------------------
[32;1m[Board] [0m6 ||[7;1m [0m| |[7;1m [0m| |[7;1m [0m| |[30;1mp[0m| || 6
[32;1m[Board] [0m  -------------------
[32;1m[Board] [0m5 ||[30;1mp[0m|[0;1mb[0m|[0;1mQ[0m|[7;1m [0m| |[7;1m [0m| |[30;1mk[0m|| 5
[32;1m[Board] [0m  -------------------
[32;1m[Board] [0m4 ||[7;1m [0m| |[7;1m [0m| |[0;1mp[0m| |[7;1m [0m| || 4
[32;1m[Board] [0m  -------------------
[32;1m[Board] [0m3 || |[7;1m [0m|[0;1mk[0m|[7;1m [0m| |[7;1m [0m| |[7;1m [0m|| 3
[32;1m[Board] [0m  -------------------
[32;1m[Board] [0m2 ||[0;1mp[0m|[0;1mp[0m|[0;1mp[0m|[0;1mp[0m|[7;1m [0m|[0;1mp[0m|[0;1mp[0m|[0;1mp[0m|| 2
[32;1m[Board] [0m  -------------------
[32;1m[Board] [0m1 ||[0;1mr[0m|[7;1m [0m|[0;1mb[0m|[7;1m [0m|[0;1mK[0m|[7;1m [0m|[0;1mk[0m|[0;1mr[0m|| 1
[32;1m[Board] [0m  -------------------
[32;1m[Board] [0m    a b c d e f g h
[32;1m[Board] [0m
[32;1m[Referee] [0mThis is the turn of the Black player...
5    a    b    c    d    e    f    g    h
  +----+----+----+----+----+----+----+----+
8 | mR | mN | mB | mQ | mK | mB | mN | mR | 8
  +----+----+----+----+----+----+----+----+
7 | mP | mP | mP | mP | mP | mP | mP | mP | 7
  +----+----+----+----+----+----+----+----+
6 |    |    |    |    |    |    |    |    | 6
  +----+----+----+----+----+----+----+----+
5 |    |    |    |    |    |    |    |    | 5
  +----+----+----+----+----+----+----+----+
4 |    |    |    |    | oP |    |    |    | 4
  +----+----+----+----+----+----+----+----+
3 |    |    |    |    |    |    |    |    | 3
  +----+----+----+----+----+----+----+----+
2 | oP | oP | oP | oP |    | oP | oP | oP | 2
  +----+----+----+----+----+----+----+----+
1 | oR | oN | oB | oQ | oK | oB | oN | oR | 1
  +----+----+----+----+----+----+----+----+
    a    b    c    d    e    f    g   h

    a    b    c    d    e    f    g    h
  +----+----+----+----+----+----+----+----+
8 | mR | mN | mB | mQ | mK | mB | mN | mR | 8
  +----+----+----+----+----+----+----+----+
7 | mP | mP |    | mP | mP | mP | mP | mP | 7
  +----+----+----+----+----+----+----+----+
6 |    |    |    |    |    |    |    |    | 6
  +----+----+----+----+----+----+----+----+
5 |    |    | mP |    |    |    |    |    | 5
  +----+----+----+----+----+----+----+----+
4 |    |    |    |    | oP |    |    |    | 4
  +----+----+----+----+----+----+----+----+
3 |    |    |    |    |    |    |    |    | 3
  +----+----+----+----+----+----+----+----+
2 | oP | oP | oP | oP |    | oP | oP | oP | 2
  +----+----+----+----+----+----+----+----+
1 | oR | oN | oB | oQ | oK | oB | oN | oR | 1
  +----+----+----+----+----+----+----+----+
    a    b    c    d    e    f    g   h

    a    b    c    d    e    f    g    h
  +----+----+----+----+----+----+----+----+
8 | mR | mN | mB | mQ | mK | mB | mN | mR | 8
  +----+----+----+----+----+----+----+----+
7 | mP | mP |    | mP | mP | mP | mP | mP | 7
  +----+----+----+----+----+----+----+----+
6 |    |    |    |    |    |    |    |    | 6
  +----+----+----+----+----+----+----+----+
5 |    |    | mP |    |    |    |    |    | 5
  +----+----+----+----+----+----+----+----+
4 |    |    |    |    | oP |    |    |    | 4
  +----+----+----+----+----+----+----+----+
3 |    |    | oN |    |    |    |    |    | 3
  +----+----+----+----+----+----+----+----+
2 | oP | oP | oP | oP |    | oP | oP | oP | 2
  +----+----+----+----+----+----+----+----+
1 | oR |    | oB | oQ | oK | oB | oN | oR | 1
  +----+----+----+----+----+----+----+----+
    a    b    c    d    e    f    g   h

    a    b    c    d    e    f    g    h
  +----+----+----+----+----+----+----+----+
8 | mR | mN | mB | mQ | mK | mB |    | mR | 8
  +----+----+----+----+----+----+----+----+
7 | mP | mP |    | mP | mP | mP | mP | mP | 7
  +----+----+----+----+----+----+----+----+
6 |    |    |    |    |    | mN |    |    | 6
  +----+----+----+----+----+----+----+----+
5 |    |    | mP |    |    |    |    |    | 5
  +----+----+----+----+----+----+----+----+
4 |    |    |    |    | oP |    |    |    | 4
  +----+----+----+----+----+----+----+----+
3 |    |    | oN |    |    |    |    |    | 3
  +----+----+----+----+----+----+----+----+
2 | oP | oP | oP | oP |    | oP | oP | oP | 2
  +----+----+----+----+----+----+----+----+
1 | oR |    | oB | oQ | oK | oB | oN | oR | 1
  +----+----+----+----+----+----+----+----+
    a    b    c    d    e    f    g   h

    a    b    c    d    e    f    g    h
  +----+----+----+----+----+----+----+----+
8 | mR | mN | mB | mQ | mK | mB |    | mR | 8
  +----+----+----+----+----+----+----+----+
7 | mP | mP |    | mP | mP | mP | mP | mP | 7
  +----+----+----+----+----+----+----+----+
6 |    |    |    |    |    | mN |    |    | 6
  +----+----+----+----+----+----+----+----+
5 |    |    | mP |    |    |    |    |    | 5
  +----+----+----+----+----+----+----+----+
4 |    |    |    |    | oP |    |    |    | 4
  +----+----+----+----+----+----+----+----+
3 |    |    | oN |    |    | oQ |    |    | 3
  +----+----+----+----+----+----+----+----+
2 | oP | oP | oP | oP |    | oP | oP | oP | 2
  +----+----+----+----+----+----+----+----+
1 | oR |    | oB |    | oK | oB | oN | oR | 1
  +----+----+----+----+----+----+----+----+
    a    b    c    d    e    f    g   h

    a    b    c    d    e    f    g    h
  +----+----+----+----+----+----+----+----+
8 | mR | mN | mB | mQ | mK | mB |    | mR | 8
  +----+----+----+----+----+----+----+----+
7 |    | mP |    | mP | mP | mP | mP | mP | 7
  +----+----+----+----+----+----+----+----+
6 |    |    |    |    |    | mN |    |    | 6
  +----+----+----+----+----+----+----+----+
5 | mP |    | mP |    |    |    |    |    | 5
  +----+----+----+----+----+----+----+----+
4 |    |    |    |    | oP |    |    |    | 4
  +----+----+----+----+----+----+----+----+
3 |    |    | oN |    |    | oQ |    |    | 3
  +----+----+----+----+----+----+----+----+
2 | oP | oP | oP | oP |    | oP | oP | oP | 2
  +----+----+----+----+----+----+----+----+
1 | oR |    | oB |    | oK | oB | oN | oR | 1
  +----+----+----+----+----+----+----+----+
    a    b    c    d    e    f    g   h

    a    b    c    d    e    f    g    h
  +----+----+----+----+----+----+----+----+
8 | mR | mN | mB | mQ | mK | mB |    | mR | 8
  +----+----+----+----+----+----+----+----+
7 |    | mP |    | mP | mP | mP | mP | mP | 7
  +----+----+----+----+----+----+----+----+
6 |    |    |    |    |    | mN |    |    | 6
  +----+----+----+----+----+----+----+----+
5 | mP |    | mP |    |    | oQ |    |    | 5
  +----+----+----+----+----+----+----+----+
4 |    |    |    |    | oP |    |    |    | 4
  +----+----+----+----+----+----+----+----+
3 |    |    | oN |    |    |    |    |    | 3
  +----+----+----+----+----+----+----+----+
2 | oP | oP | oP | oP |    | oP | oP | oP | 2
  +----+----+----+----+----+----+----+----+
1 | oR |    | oB |    | oK | oB | oN | oR | 1
  +----+----+----+----+----+----+----+----+
    a    b    c    d    e    f    g   h

    a    b    c    d    e    f    g    h
[...]
6 |    |    |    |    |    | mN |    |    | 6
  +----+----+----+----+----+----+----+----+
5 |    |    | mP |    |    |    |    |    | 5
  +----+----+----+----+----+----+----+----+
4 |    |    |    |    | oP |    |    |    | 4
  +----+----+----+----+----+----+----+----+
3 |    |    | oN |    |    | oQ |    |    | 3
  +----+----+----+----+----+----+----+----+
2 | oP | oP | oP | oP |    | oP | oP | oP | 2
  +----+----+----+----+----+----+----+----+
1 | oR |    | oB |    | oK | oB | oN | oR | 1
  +----+----+----+----+----+----+----+----+
    a    b    c    d    e    f    g   h

    a    b    c    d    e    f    g    h
  +----+----+----+----+----+----+----+----+
8 | mR | mN | mB | mQ | mK | mB |    | mR | 8
  +----+----+----+----+----+----+----+----+
7 |    | mP |    | mP | mP | mP | mP | mP | 7
  +----+----+----+----+----+----+----+----+
6 |    |    |    |    |    | mN |    |    | 6
  +----+----+----+----+----+----+----+----+
5 | mP |    | mP |    |    |    |    |    | 5
  +----+----+----+----+----+----+----+----+
4 |    |    |    |    | oP |    |    |    | 4
  +----+----+----+----+----+----+----+----+
3 |    |    | oN |    |    | oQ |    |    | 3
  +----+----+----+----+----+----+----+----+
2 | oP | oP | oP | oP |    | oP | oP | oP | 2
  +----+----+----+----+----+----+----+----+
1 | oR |    | oB |    | oK | oB | oN | oR | 1
  +----+----+----+----+----+----+----+----+
    a    b    c    d    e    f    g   h

    a    b    c    d    e    f    g    h
  +----+----+----+----+----+----+----+----+
8 | mR | mN | mB | mQ | mK | mB |    | mR | 8
  +----+----+----+----+----+----+----+----+
7 |    | mP |    | mP | mP | mP | mP | mP | 7
  +----+----+----+----+----+----+----+----+
6 |    |    |    |    |    | mN |    |    | 6
  +----+----+----+----+----+----+----+----+
5 | mP |    | mP |    |    | oQ |    |    | 5
  +----+----+----+----+----+----+----+----+
4 |    |    |    |    | oP |    |    |    | 4
  +----+----+----+----+----+----+----+----+
3 |    |    | oN |    |    |    |    |    | 3
  +----+----+----+----+----+----+----+----+
2 | oP | oP | oP | oP |    | oP | oP | oP | 2
  +----+----+----+----+----+----+----+----+
1 | oR |    | oB |    | oK | oB | oN | oR | 1
  +----+----+----+----+----+----+----+----+
    a    b    c    d    e    f    g   h

    a    b    c    d    e    f    g    h
  +----+----+----+----+----+----+----+----+
8 | mR |    | mB | mQ | mK | mB |    | mR | 8
  +----+----+----+----+----+----+----+----+
7 |    | mP |    | mP | mP | mP | mP | mP | 7
  +----+----+----+----+----+----+----+----+
6 | mN |    |    |    |    | mN |    |    | 6
  +----+----+----+----+----+----+----+----+
5 | mP |    | mP |    |    | oQ |    |    | 5
  +----+----+----+----+----+----+----+----+
4 |    |    |    |    | oP |    |    |    | 4
  +----+----+----+----+----+----+----+----+
3 |    |    | oN |    |    |    |    |    | 3
  +----+----+----+----+----+----+----+----+
2 | oP | oP | oP | oP |    | oP | oP | oP | 2
  +----+----+----+----+----+----+----+----+
1 | oR |    | oB |    | oK | oB | oN | oR | 1
  +----+----+----+----+----+----+----+----+
    a    b    c    d    e    f    g   h

    a    b    c    d    e    f    g    h
  +----+----+----+----+----+----+----+----+
8 | mR |    | mB | mQ | mK | mB |    | mR | 8
  +----+----+----+----+----+----+----+----+
7 |    | mP |    | mP | mP | mP | mP | mP | 7
  +----+----+----+----+----+----+----+----+
6 | oB |    |    |    |    | mN |    |    | 6
  +----+----+----+----+----+----+----+----+
5 | mP |    | mP |    |    | oQ |    |    | 5
  +----+----+----+----+----+----+----+----+
4 |    |    |    |    | oP |    |    |    | 4
  +----+----+----+----+----+----+----+----+
3 |    |    | oN |    |    |    |    |    | 3
  +----+----+----+----+----+----+----+----+
2 | oP | oP | oP | oP |    | oP | oP | oP | 2
  +----+----+----+----+----+----+----+----+
1 | oR |    | oB |    | oK |    | oN | oR | 1
  +----+----+----+----+----+----+----+----+
    a    b    c    d    e    f    g   h

    a    b    c    d    e    f    g    h
  +----+----+----+----+----+----+----+----+
8 | mR |    | mB | mQ | mK | mB |    | mR | 8
  +----+----+----+----+----+----+----+----+
7 |    | mP |    | mP | mP | mP | mP | mP | 7
  +----+----+----+----+----+----+----+----+
6 | oB |    |    |    |    |    |    |    | 6
  +----+----+----+----+----+----+----+----+
5 | mP |    | mP |    |    | oQ |    | mN | 5
  +----+----+----+----+----+----+----+----+
4 |    |    |    |    | oP |    |    |    | 4
  +----+----+----+----+----+----+----+----+
3 |    |    | oN |    |    |    |    |    | 3
  +----+----+----+----+----+----+----+----+
2 | oP | oP | oP | oP |    | oP | oP | oP | 2
  +----+----+----+----+----+----+----+----+
1 | oR |    | oB |    | oK |    | oN | oR | 1
  +----+----+----+----+----+----+----+----+
    a    b    c    d    e    f    g   h

    a    b    c    d    e    f    g    h
  +----+----+----+----+----+----+----+----+
8 | mR |    | mB | mQ | mK | mB |    | mR | 8
  +----+----+----+----+----+----+----+----+
7 |    | mP |    | mP | mP | mP | mP | mP | 7
  +----+----+----+----+----+----+----+----+
6 |    |    |    |    |    |    |    |    | 6
  +----+----+----+----+----+----+----+----+
5 | mP | oB | mP |    |    | oQ |    | mN | 5
  +----+----+----+----+----+----+----+----+
4 |    |    |    |    | oP |    |    |    | 4
  +----+----+----+----+----+----+----+----+
3 |    |    | oN |    |    |    |    |    | 3
  +----+----+----+----+----+----+----+----+
2 | oP | oP | oP | oP |    | oP | oP | oP | 2
  +----+----+----+----+----+----+----+----+
1 | oR |    | oB |    | oK |    | oN | oR | 1
  +----+----+----+----+----+----+----+----+
    a    b    c    d    e    f    g   h

    a    b    c    d    e    f    g    h
  +----+----+----+----+----+----+----+----+
8 | mR |    | mB | mQ | mK | mB |    | mR | 8
  +----+----+----+----+----+----+----+----+
7 |    | mP |    | mP | mP | mP |    | mP | 7
  +----+----+----+----+----+----+----+----+
6 |    |    |    |    |    |    | mP |    | 6
  +----+----+----+----+----+----+----+----+
5 | mP | oB | mP |    |    | oQ |    | mN | 5
  +----+----+----+----+----+----+----+----+
4 |    |    |    |    | oP |    |    |    | 4
  +----+----+----+----+----+----+----+----+
3 |    |    | oN |    |    |    |    |    | 3
  +----+----+----+----+----+----+----+----+
2 | oP | oP | oP | oP |    | oP | oP | oP | 2
  +----+----+----+----+----+----+----+----+
1 | oR |    | oB |    | oK |    | oN | oR | 1
  +----+----+----+----+----+----+----+----+
    a    b    c    d    e    f    g   h

    a    b    c    d    e    f    g    h
  +----+----+----+----+----+----+----+----+
8 | mR |    | mB | mQ | mK | mB |    | mR | 8
  +----+----+----+----+----+----+----+----+
7 |    | mP |    | mP | mP | mP |    | mP | 7
  +----+----+----+----+----+----+----+----+
6 |    |    |    |    |    |    | mP |    | 6
  +----+----+----+----+----+----+----+----+
5 | mP | oB | oQ |    |    |    |    | mN | 5
  +----+----+----+----+----+----+----+----+
4 |    |    |    |    | oP |    |    |    | 4
  +----+----+----+----+----+----+----+----+
3 |    |    | oN |    |    |    |    |    | 3
  +----+----+----+----+----+----+----+----+
2 | oP | oP | oP | oP |    | oP | oP | oP | 2
  +----+----+----+----+----+----+----+----+
1 | oR |    | oB |    | oK |    | oN | oR | 1
  +----+----+----+----+----+----+----+----+
    a    b    c    d    e    f    g   h

    a    b    c    d    e    f    g    h
  +----+----+----+----+----+----+----+----+
8 | mR |    | mB | mQ | mK | mB |    | mR | 8
  +----+----+----+----+----+----+----+----+
7 |    | mP |    | mP | mP | mP |    | mP | 7
  +----+----+----+----+----+----+----+----+
6 |    |    |    |    |    |    | mP |    | 6
  +----+----+----+----+----+----+----+----+
5 |    | oB | oQ |    |    |    |    | mN | 5
  +----+----+----+----+----+----+----+----+
4 | mP |    |    |    | oP |    |    |    | 4
  +----+----+----+----+----+----+----+----+
3 |    |    | oN |    |    |    |    |    | 3
  +----+----+----+----+----+----+----+----+
2 | oP | oP | oP | oP |    | oP | oP | oP | 2
  +----+----+----+----+----+----+----+----+
1 | oR |    | oB |    | oK |    | oN | oR | 1
  +----+----+----+----+----+----+----+----+
    a    b    c    d    e    f    g   h

    a    b    c    d    e    f    g    h
  +----+----+----+----+----+----+----+----+
8 | mR |    | mB | mQ | mK | mB |    | mR | 8
  +----+----+----+----+----+----+----+----+
7 |    | mP |    | mP | mP | mP |    | mP | 7
  +----+----+----+----+----+----+----+----+
6 |    |    |    |    |    |    | mP |    | 6
  +----+----+----+----+----+----+----+----+
5 |    | oB | oQ | oN |    |    |    | mN | 5
  +----+----+----+----+----+----+----+----+
4 | mP |    |    |    | oP |    |    |    | 4
  +----+----+----+----+----+----+----+----+
3 |    |    |    |    |    |    |    |    | 3
  +----+----+----+----+----+----+----+----+
2 | oP | oP | oP | oP |    | oP | oP | oP | 2
  +----+----+----+----+----+----+----+----+
1 | oR |    | oB |    | oK |    | oN | oR | 1
  +----+----+----+----+----+----+----+----+
    a    b    c    d    e    f    g   h

    a    b    c    d    e    f    g    h
  +----+----+----+----+----+----+----+----+
8 | mR |    | mB |    | mK | mB |    | mR | 8
  +----+----+----+----+----+----+----+----+
7 |    | mP | mQ | mP | mP | mP |    | mP | 7
  +----+----+----+----+----+----+----+----+
6 |    |    |    |    |    |    | mP |    | 6
  +----+----+----+----+----+----+----+----+
5 |    | oB | oQ | oN |    |    |    | mN | 5
  +----+----+----+----+----+----+----+----+
4 | mP |    |    |    | oP |    |    |    | 4
  +----+----+----+----+----+----+----+----+
3 |    |    |    |    |    |    |    |    | 3
  +----+----+----+----+----+----+----+----+
2 | oP | oP | oP | oP |    | oP | oP | oP | 2
  +----+----+----+----+----+----+----+----+
1 | oR |    | oB |    | oK |    | oN | oR | 1
  +----+----+----+----+----+----+----+----+
    a    b    c    d    e    f    g   h

    a    b    c    d    e    f    g    h
  +----+----+----+----+----+----+----+----+
8 | mR |    | mB |    | mK | mB |    | mR | 8
  +----+----+----+----+----+----+----+----+
7 |    | mP | oN | mP | mP | mP |    | mP | 7
  +----+----+----+----+----+----+----+----+
6 |    |    |    |    |    |    | mP |    | 6
  +----+----+----+----+----+----+----+----+
5 |    | oB | oQ |    |    |    |    | mN | 5
  +----+----+----+----+----+----+----+----+
4 | mP |    |    |    | oP |    |    |    | 4
  +----+----+----+----+----+----+----+----+
3 |    |    |    |    |    |    |    |    | 3
  +----+----+----+----+----+----+----+----+
2 | oP | oP | oP | oP |    | oP | oP | oP | 2
  +----+----+----+----+----+----+----+----+
1 | oR |    | oB |    | oK |    | oN | oR | 1
  +----+----+----+----+----+----+----+----+
    a    b    c    d    e    f    g   h

    a    b    c    d    e    f    g    h
  +----+----+----+----+----+----+----+----+
8 | mR |    | mB | mK |    | mB |    | mR | 8
  +----+----+----+----+----+----+----+----+
7 |    | mP | oN | mP | mP | mP |    | mP | 7
  +----+----+----+----+----+----+----+----+
6 |    |    |    |    |    |    | mP |    | 6
  +----+----+----+----+----+----+----+----+
5 |    | oB | oQ |    |    |    |    | mN | 5
  +----+----+----+----+----+----+----+----+
4 | mP |    |    |    | oP |    |    |    | 4
  +----+----+----+----+----+----+----+----+
3 |    |    |    |    |    |    |    |    | 3
  +----+----+----+----+----+----+----+----+
2 | oP | oP | oP | oP |    | oP | oP | oP | 2
  +----+----+----+----+----+----+----+----+
1 | oR |    | oB |    | oK |    | oN | oR | 1
  +----+----+----+----+----+----+----+----+
    a    b    c    d    e    f    g   h

    a    b    c    d    e    f    g    h
  +----+----+----+----+----+----+----+----+
8 | oN |    | mB | mK |    | mB |    | mR | 8
  +----+----+----+----+----+----+----+----+
7 |    | mP |    | mP | mP | mP |    | mP | 7
  +----+----+----+----+----+----+----+----+
6 |    |    |    |    |    |    | mP |    | 6
  +----+----+----+----+----+----+----+----+
5 |    | oB | oQ |    |    |    |    | mN | 5
  +----+----+----+----+----+----+----+----+
4 | mP |    |    |    | oP |    |    |    | 4
  +----+----+----+----+----+----+----+----+
3 |    |    |    |    |    |    |    |    | 3
  +----+----+----+----+----+----+----+----+
2 | oP | oP | oP | oP |    | oP | oP | oP | 2
  +----+----+----+----+----+----+----+----+
1 | oR |    | oB |    | oK |    | oN | oR | 1
  +----+----+----+----+----+----+----+----+
    a    b    c    d    e    f    g   h

    a    b    c    d    e    f    g    h
  +----+----+----+----+----+----+----+----+
8 | oN |    | mB | mK |    | mB |    | mR | 8
  +----+----+----+----+----+----+----+----+
7 |    | mP |    | mP | mP | mP |    | mP | 7
  +----+----+----+----+----+----+----+----+
6 |    |    |    |    |    |    | mP |    | 6
  +----+----+----+----+----+----+----+----+
5 |    | oB | oQ |    |    |    |    |    | 5
  +----+----+----+----+----+----+----+----+
4 | mP |    |    |    | oP | mN |    |    | 4
  +----+----+----+----+----+----+----+----+
3 |    |    |    |    |    |    |    |    | 3
  +----+----+----+----+----+----+----+----+
2 | oP | oP | oP | oP |    | oP | oP | oP | 2
  +----+----+----+----+----+----+----+----+
1 | oR |    | oB |    | oK |    | oN | oR | 1
  +----+----+----+----+----+----+----+----+
    a    b    c    d    e    f    g   h

    a    b    c    d    e    f    g    h
  +----+----+----+----+----+----+----+----+
8 | oN |    | mB | mK |    | mB |    | mR | 8
  +----+----+----+----+----+----+----+----+
7 |    | mP | oQ | mP | mP | mP |    | mP | 7
  +----+----+----+----+----+----+----+----+
6 |    |    |    |    |    |    | mP |    | 6
  +----+----+----+----+----+----+----+----+
5 |    | oB |    |    |    |    |    |    | 5
  +----+----+----+----+----+----+----+----+
4 | mP |    |    |    | oP | mN |    |    | 4
  +----+----+----+----+----+----+----+----+
3 |    |    |    |    |    |    |    |    | 3
  +----+----+----+----+----+----+----+----+
2 | oP | oP | oP | oP |    | oP | oP | oP | 2
  +----+----+----+----+----+----+----+----+
1 | oR |    | oB |    | oK |    | oN | oR | 1
  +----+----+----+----+----+----+----+----+
    a    b    c    d    e    f    g   h

    a    b    c    d    e    f    g    h
  +----+----+----+----+----+----+----+----+
8 | oN |    | mB | mK |    | mB |    | mR | 8
  +----+----+----+----+----+----+----+----+
7 |    | mP | oQ | mP | mP | mP |    | mP | 7
  +----+----+----+----+----+----+----+----+
6 |    |    |    |    |    |    | mP |    | 6
  +----+----+----+----+----+----+----+----+
5 |    | oB |    |    |    |    |    |    | 5
  +----+----+----+----+----+----+----+----+
4 | mP |    |    |    | oP | mN |    |    | 4
  +----+----+----+----+----+----+----+----+
3 |    |    |    |    |    |    |    |    | 3
  +----+----+----+----+----+----+----+----+
2 | oP | oP | oP | oP |    | oP | oP | oP | 2
  +----+----+----+----+----+----+----+----+
1 | oR |    | oB |    | oK |    | oN | oR | 1
  +----+----+----+----+----+----+----+----+
    a    b    c    d    e    f    g   h

random move: d8e8
Move written to championship/lizzie-iii-chess-ai/move.csv successfully!
eval: -2504
qrbkqrbkqrbkError: did not find a king which is not normal
[32;1m[Game] [0mPlayer's error code: 256
[32;1m[Game] [0mChecking move validity...
[32;1m[Board] [0mInitializing board...
[32;1m[Board] [0mLoading history file `championship/lizzie-iii-chess-ai/history.csv`...
[32;1m[Board] [0mLoaded 21 move(s).
[32;1m[Board] [0mLoading move file `championship/lizzie-iii-chess-ai/move.csv`...
[32;1m[Board] [0mBlack player is playing d8 to e8.
[32;1m[Board] [0m
[32;1m[Board] [0m    a b c d e f g h 
[32;1m[Board] [0m  -------------------
[32;1m[Board] [0m8 ||[0;1mk[0m| |[30;1mb[0m| |[30;1mK[0m|[30;1mb[0m|[7;1m [0m|[30;1mr[0m|| 8
[32;1m[Board] [0m  -------------------
[32;1m[Board] [0m7 || |[30;1mp[0m|[0;1mQ[0m|[30;1mp[0m|[30;1mp[0m|[30;1mp[0m| |[30;1mp[0m|| 7
[32;1m[Board] [0m  -------------------
[32;1m[Board] [0m6 ||[7;1m [0m| |[7;1m [0m| |[7;1m [0m| |[30;1mp[0m| || 6
[32;1m[Board] [0m  -------------------
[32;1m[Board] [0m5 || |[0;1mb[0m| |[7;1m [0m| |[7;1m [0m| |[7;1m [0m|| 5
[32;1m[Board] [0m  -------------------
[32;1m[Board] [0m4 ||[30;1mp[0m| |[7;1m [0m| |[0;1mp[0m|[30;1mk[0m|[7;1m [0m| || 4
[32;1m[Board] [0m  -------------------
[32;1m[Board] [0m3 || |[7;1m [0m| |[7;1m [0m| |[7;1m [0m| |[7;1m [0m|| 3
[32;1m[Board] [0m  -------------------
[32;1m[Board] [0m2 ||[0;1mp[0m|[0;1mp[0m|[0;1mp[0m|[0;1mp[0m|[7;1m [0m|[0;1mp[0m|[0;1mp[0m|[0;1mp[0m|| 2
[32;1m[Board] [0m  -------------------
[32;1m[Board] [0m1 ||[0;1mr[0m|[7;1m [0m|[0;1mb[0m|[7;1m [0m|[0;1mK[0m|[7;1m [0m|[0;1mk[0m|[0;1mr[0m|| 1
[32;1m[Board] [0m  -------------------
[32;1m[Board] [0m    a b c d e f g h
[32;1m[Board] [0m
[32;1m[Referee] [0mThis is the turn of the White player...
Input file: championship/lizzie-iii-chess-ai/history.csv
Output file: championship/lizzie-iii-chess-ai/move.csv
We are playing as White
8 | [1;32mN[0m [1;30m_[0m [1;31mB[0m [1;30m_[0m [1;31mK[0m [1;31mB[0m [1;30m_[0m [1;31mR[0m 
7 | [1;30m_[0m [1;31mP[0m [1;32mQ[0m [1;31mP[0m [1;31mP[0m [1;31mP[0m [1;30m_[0m [1;31mP[0m 
6 | [1;30m_[0m [1;30m_[0m [1;30m_[0m [1;30m_[0m [1;30m_[0m [1;30m_[0m [1;31mP[0m [1;30m_[0m 
5 | [1;30m_[0m [1;32mB[0m [1;30m_[0m [1;30m_[0m [1;30m_[0m [1;30m_[0m [1;30m_[0m [1;30m_[0m 
4 | [1;31mP[0m [1;30m_[0m [1;30m_[0m [1;30m_[0m [1;32mP[0m [1;31mN[0m [1;30m_[0m [1;30m_[0m 
3 | [1;30m_[0m [1;30m_[0m [1;30m_[0m [1;30m_[0m [1;30m_[0m [1;30m_[0m [1;30m_[0m [1;30m_[0m 
2 | [1;32mP[0m [1;32mP[0m [1;32mP[0m [1;32mP[0m [1;30m_[0m [1;32mP[0m [1;32mP[0m [1;32mP[0m 
1 | [1;32mR[0m [1;30m_[0m [1;32mB[0m [1;30m_[0m [1;32mK[0m [1;30m_[0m [1;32mN[0m [1;32mR[0m 
-------------------
  | A B C D E F G H 

It is white's turn to play.
Best move: c7c8
Evaluation: 100000
Node count: 17439

Total time: 528.234 ms
[32;1m[Game] [0mPlayer's error code: 0
[32;1m[Game] [0mChecking move validity...
[32;1m[Board] [0mInitializing board...
[32;1m[Board] [0mLoading history file `championship/lizzie-iii-chess-ai/history.csv`...
[32;1m[Board] [0mLoaded 22 move(s).
[32;1m[Board] [0mLoading move file `championship/lizzie-iii-chess-ai/move.csv`...
[32;1m[Board] [0mWhite player is playing c7 to c8.
[32;1m[Board] [0m[5;1mWhite Queen is taking Black Bishop.[0m
[32;1m[Board] [0m
[32;1m[Board] [0m    a b c d e f g h 
[32;1m[Board] [0m  -------------------
[32;1m[Board] [0m8 ||[0;1mk[0m| |[0;1mQ[0m| |[30;1mK[0m|[30;1mb[0m|[7;1m [0m|[30;1mr[0m|| 8
[32;1m[Board] [0m  -------------------
[32;1m[Board] [0m7 || |[30;1mp[0m| |[30;1mp[0m|[30;1mp[0m|[30;1mp[0m| |[30;1mp[0m|| 7
[32;1m[Board] [0m  -------------------
[32;1m[Board] [0m6 ||[7;1m [0m| |[7;1m [0m| |[7;1m [0m| |[30;1mp[0m| || 6
[32;1m[Board] [0m  -------------------
[32;1m[Board] [0m5 || |[0;1mb[0m| |[7;1m [0m| |[7;1m [0m| |[7;1m [0m|| 5
[32;1m[Board] [0m  -------------------
[32;1m[Board] [0m4 ||[30;1mp[0m| |[7;1m [0m| |[0;1mp[0m|[30;1mk[0m|[7;1m [0m| || 4
[32;1m[Board] [0m  -------------------
[32;1m[Board] [0m3 || |[7;1m [0m| |[7;1m [0m| |[7;1m [0m| |[7;1m [0m|| 3
[32;1m[Board] [0m  -------------------
[32;1m[Board] [0m2 ||[0;1mp[0m|[0;1mp[0m|[0;1mp[0m|[0;1mp[0m|[7;1m [0m|[0;1mp[0m|[0;1mp[0m|[0;1mp[0m|| 2
[32;1m[Board] [0m  -------------------
[32;1m[Board] [0m1 ||[0;1mr[0m|[7;1m [0m|[0;1mb[0m|[7;1m [0m|[0;1mK[0m|[7;1m [0m|[0;1mk[0m|[0;1mr[0m|| 1
[32;1m[Board] [0m  -------------------
[32;1m[Board] [0m    a b c d e f g h
[32;1m[Board] [0m
[32;1m[Referee] [0mThis is the turn of the Black player...
[32;1m[Board] [0m[33;1m[WARNING][0m [5;1mBlack King in checkmate![0m
[32;1m[Board] [0m[33;1m[WARNING][0m The White player wins!
