[32;1m[Board] [0mInitializing board...
[32;1m[Board] [0m
[32;1m[Board] [0m    a b c d e f g h 
[32;1m[Board] [0m  -------------------
[32;1m[Board] [0m8 ||[30;1mr[0m|[30;1mk[0m|[30;1mb[0m|[30;1mQ[0m|[30;1mK[0m|[30;1mb[0m|[30;1mk[0m|[30;1mr[0m|| 8
[32;1m[Board] [0m  -------------------
[32;1m[Board] [0m7 ||[30;1mp[0m|[30;1mp[0m|[30;1mp[0m|[30;1mp[0m|[30;1mp[0m|[30;1mp[0m|[30;1mp[0m|[30;1mp[0m|| 7
[32;1m[Board] [0m  -------------------
[32;1m[Board] [0m6 ||[7;1m [0m| |[7;1m [0m| |[7;1m [0m| |[7;1m [0m| || 6
[32;1m[Board] [0m  -------------------
[32;1m[Board] [0m5 || |[7;1m [0m| |[7;1m [0m| |[7;1m [0m| |[7;1m [0m|| 5
[32;1m[Board] [0m  -------------------
[32;1m[Board] [0m4 ||[7;1m [0m| |[7;1m [0m| |[7;1m [0m| |[7;1m [0m| || 4
[32;1m[Board] [0m  -------------------
[32;1m[Board] [0m3 || |[7;1m [0m| |[7;1m [0m| |[7;1m [0m| |[7;1m [0m|| 3
[32;1m[Board] [0m  -------------------
[32;1m[Board] [0m2 ||[0;1mp[0m|[0;1mp[0m|[0;1mp[0m|[0;1mp[0m|[0;1mp[0m|[0;1mp[0m|[0;1mp[0m|[0;1mp[0m|| 2
[32;1m[Board] [0m  -------------------
[32;1m[Board] [0m1 ||[0;1mr[0m|[0;1mk[0m|[0;1mb[0m|[0;1mQ[0m|[0;1mK[0m|[0;1mb[0m|[0;1mk[0m|[0;1mr[0m|| 1
[32;1m[Board] [0m  -------------------
[32;1m[Board] [0m    a b c d e f g h
[32;1m[Board] [0m
[32;1m[Referee] [0mThis is the turn of the White player...
Input file: championship/lizzie-iii-chess-ai/history.csv
Output file: championship/lizzie-iii-chess-ai/move.csv
We are playing as White
8 | [1;31mR[0m [1;31mN[0m [1;31mB[0m [1;31mQ[0m [1;31mK[0m [1;31mB[0m [1;31mN[0m [1;31mR[0m 
7 | [1;31mP[0m [1;31mP[0m [1;31mP[0m [1;31mP[0m [1;31mP[0m [1;31mP[0m [1;31mP[0m [1;31mP[0m 
6 | [1;30m_[0m [1;30m_[0m [1;30m_[0m [1;30m_[0m [1;30m_[0m [1;30m_[0m [1;30m_[0m [1;30m_[0m 
5 | [1;30m_[0m [1;30m_[0m [1;30m_[0m [1;30m_[0m [1;30m_[0m [1;30m_[0m [1;30m_[0m [1;30m_[0m 
4 | [1;30m_[0m [1;30m_[0m [1;30m_[0m [1;30m_[0m [1;30m_[0m [1;30m_[0m [1;30m_[0m [1;30m_[0m 
3 | [1;30m_[0m [1;30m_[0m [1;30m_[0m [1;30m_[0m [1;30m_[0m [1;30m_[0m [1;30m_[0m [1;30m_[0m 
2 | [1;32mP[0m [1;32mP[0m [1;32mP[0m [1;32mP[0m [1;32mP[0m [1;32mP[0m [1;32mP[0m [1;32mP[0m 
1 | [1;32mR[0m [1;32mN[0m [1;32mB[0m [1;32mQ[0m [1;32mK[0m [1;32mB[0m [1;32mN[0m [1;32mR[0m 
-------------------
  | A B C D E F G H 

It is white's turn to play.
Best move: e2e4
Evaluation: 90
Node count: 25077

Total time: 705.074 ms
[32;1m[Game] [0mPlayer's error code: 0
[32;1m[Game] [0mChecking move validity...
[32;1m[Board] [0mInitializing board...
[32;1m[Board] [0mLoading history file `championship/lizzie-iii-chess-ai/history.csv`...
[32;1m[Board] [0mLoaded 0 move(s).
[32;1m[Board] [0mLoading move file `championship/lizzie-iii-chess-ai/move.csv`...
[32;1m[Board] [0mWhite player is playing e2 to e4.
[32;1m[Board] [0m
[32;1m[Board] [0m    a b c d e f g h 
[32;1m[Board] [0m  -------------------
[32;1m[Board] [0m8 ||[30;1mr[0m|[30;1mk[0m|[30;1mb[0m|[30;1mQ[0m|[30;1mK[0m|[30;1mb[0m|[30;1mk[0m|[30;1mr[0m|| 8
[32;1m[Board] [0m  -------------------
[32;1m[Board] [0m7 ||[30;1mp[0m|[30;1mp[0m|[30;1mp[0m|[30;1mp[0m|[30;1mp[0m|[30;1mp[0m|[30;1mp[0m|[30;1mp[0m|| 7
[32;1m[Board] [0m  -------------------
[32;1m[Board] [0m6 ||[7;1m [0m| |[7;1m [0m| |[7;1m [0m| |[7;1m [0m| || 6
[32;1m[Board] [0m  -------------------
[32;1m[Board] [0m5 || |[7;1m [0m| |[7;1m [0m| |[7;1m [0m| |[7;1m [0m|| 5
[32;1m[Board] [0m  -------------------
[32;1m[Board] [0m4 ||[7;1m [0m| |[7;1m [0m| |[0;1mp[0m| |[7;1m [0m| || 4
[32;1m[Board] [0m  -------------------
[32;1m[Board] [0m3 || |[7;1m [0m| |[7;1m [0m| |[7;1m [0m| |[7;1m [0m|| 3
[32;1m[Board] [0m  -------------------
[32;1m[Board] [0m2 ||[0;1mp[0m|[0;1mp[0m|[0;1mp[0m|[0;1mp[0m|[7;1m [0m|[0;1mp[0m|[0;1mp[0m|[0;1mp[0m|| 2
[32;1m[Board] [0m  -------------------
[32;1m[Board] [0m1 ||[0;1mr[0m|[0;1mk[0m|[0;1mb[0m|[0;1mQ[0m|[0;1mK[0m|[0;1mb[0m|[0;1mk[0m|[0;1mr[0m|| 1
[32;1m[Board] [0m  -------------------
[32;1m[Board] [0m    a b c d e f g h
[32;1m[Board] [0m
[32;1m[Referee] [0mThis is the turn of the Black player...
5    a    b    c    d    e    f    g    h
  +----+----+----+----+----+----+----+----+
8 | mR | mN | mB | mQ | mK | mB | mN | mR | 8
  +----+----+----+----+----+----+----+----+
7 | mP | mP | mP | mP | mP | mP | mP | mP | 7
  +----+----+----+----+----+----+----+----+
6 |    |    |    |    |    |    |    |    | 6
  +----+----+----+----+----+----+----+----+
5 |    |    |    |    |    |    |    |    | 5
  +----+----+----+----+----+----+----+----+
4 |    |    |    |    | oP |    |    |    | 4
  +----+----+----+----+----+----+----+----+
3 |    |    |    |    |    |    |    |    | 3
  +----+----+----+----+----+----+----+----+
2 | oP | oP | oP | oP |    | oP | oP | oP | 2
  +----+----+----+----+----+----+----+----+
1 | oR | oN | oB | oQ | oK | oB | oN | oR | 1
  +----+----+----+----+----+----+----+----+
    a    b    c    d    e    f    g   h

    a    b    c    d    e    f    g    h
  +----+----+----+----+----+----+----+----+
8 | mR | mN | mB | mQ | mK | mB | mN | mR | 8
  +----+----+----+----+----+----+----+----+
7 | mP | mP | mP | mP | mP | mP | mP | mP | 7
  +----+----+----+----+----+----+----+----+
6 |    |    |    |    |    |    |    |    | 6
  +----+----+----+----+----+----+----+----+
5 |    |    |    |    |    |    |    |    | 5
  +----+----+----+----+----+----+----+----+
4 |    |    |    |    | oP |    |    |    | 4
  +----+----+----+----+----+----+----+----+
3 |    |    |    |    |    |    |    |    | 3
  +----+----+----+----+----+----+----+----+
2 | oP | oP | oP | oP |    | oP | oP | oP | 2
  +----+----+----+----+----+----+----+----+
1 | oR | oN | oB | oQ | oK | oB | oN | oR | 1
  +----+----+----+----+----+----+----+----+
    a    b    c    d    e    f    g   h

random move: h7h5
Move written to championship/lizzie-iii-chess-ai/move.csv successfully!
eval: -222
Result
Move: e4e3, Score: -20
Move: e1e2, Score: -30
Move: d1h5, Score: -40
Move: d1e2, Score: -45
Move: b1a3, Score: -50
Move: g1h3, Score: -50
Move: f1e2, Score: -50
Move: f1a6, Score: -50
Move: d1g4, Score: -50
Move: d1f3, Score: -55
Move: f1d3, Score: -70
Move: f1c4, Score: -70
Move: f1b5, Score: -70
Move: g1e2, Score: -80
Move: b1c3, Score: -90
Move: g1f3, Score: -90
[32;1m[Game] [0mPlayer's error code: 0
[32;1m[Game] [0mChecking move validity...
[32;1m[Board] [0mInitializing board...
[32;1m[Board] [0mLoading history file `championship/lizzie-iii-chess-ai/history.csv`...
[32;1m[Board] [0mLoaded 1 move(s).
[32;1m[Board] [0mLoading move file `championship/lizzie-iii-chess-ai/move.csv`...
[32;1m[Board] [0mBlack player is playing h7 to h5.
[32;1m[Board] [0m
[32;1m[Board] [0m    a b c d e f g h 
[32;1m[Board] [0m  -------------------
[32;1m[Board] [0m8 ||[30;1mr[0m|[30;1mk[0m|[30;1mb[0m|[30;1mQ[0m|[30;1mK[0m|[30;1mb[0m|[30;1mk[0m|[30;1mr[0m|| 8
[32;1m[Board] [0m  -------------------
[32;1m[Board] [0m7 ||[30;1mp[0m|[30;1mp[0m|[30;1mp[0m|[30;1mp[0m|[30;1mp[0m|[30;1mp[0m|[30;1mp[0m|[7;1m [0m|| 7
[32;1m[Board] [0m  -------------------
[32;1m[Board] [0m6 ||[7;1m [0m| |[7;1m [0m| |[7;1m [0m| |[7;1m [0m| || 6
[32;1m[Board] [0m  -------------------
[32;1m[Board] [0m5 || |[7;1m [0m| |[7;1m [0m| |[7;1m [0m| |[30;1mp[0m|| 5
[32;1m[Board] [0m  -------------------
[32;1m[Board] [0m4 ||[7;1m [0m| |[7;1m [0m| |[0;1mp[0m| |[7;1m [0m| || 4
[32;1m[Board] [0m  -------------------
[32;1m[Board] [0m3 || |[7;1m [0m| |[7;1m [0m| |[7;1m [0m| |[7;1m [0m|| 3
[32;1m[Board] [0m  -------------------
[32;1m[Board] [0m2 ||[0;1mp[0m|[0;1mp[0m|[0;1mp[0m|[0;1mp[0m|[7;1m [0m|[0;1mp[0m|[0;1mp[0m|[0;1mp[0m|| 2
[32;1m[Board] [0m  -------------------
[32;1m[Board] [0m1 ||[0;1mr[0m|[0;1mk[0m|[0;1mb[0m|[0;1mQ[0m|[0;1mK[0m|[0;1mb[0m|[0;1mk[0m|[0;1mr[0m|| 1
[32;1m[Board] [0m  -------------------
[32;1m[Board] [0m    a b c d e f g h
[32;1m[Board] [0m
[32;1m[Referee] [0mThis is the turn of the White player...
Input file: championship/lizzie-iii-chess-ai/history.csv
Output file: championship/lizzie-iii-chess-ai/move.csv
We are playing as White
8 | [1;31mR[0m [1;31mN[0m [1;31mB[0m [1;31mQ[0m [1;31mK[0m [1;31mB[0m [1;31mN[0m [1;31mR[0m 
7 | [1;31mP[0m [1;31mP[0m [1;31mP[0m [1;31mP[0m [1;31mP[0m [1;31mP[0m [1;31mP[0m [1;30m_[0m 
6 | [1;30m_[0m [1;30m_[0m [1;30m_[0m [1;30m_[0m [1;30m_[0m [1;30m_[0m [1;30m_[0m [1;30m_[0m 
5 | [1;30m_[0m [1;30m_[0m [1;30m_[0m [1;30m_[0m [1;30m_[0m [1;30m_[0m [1;30m_[0m [1;31mP[0m 
4 | [1;30m_[0m [1;30m_[0m [1;30m_[0m [1;30m_[0m [1;32mP[0m [1;30m_[0m [1;30m_[0m [1;30m_[0m 
3 | [1;30m_[0m [1;30m_[0m [1;30m_[0m [1;30m_[0m [1;30m_[0m [1;30m_[0m [1;30m_[0m [1;30m_[0m 
2 | [1;32mP[0m [1;32mP[0m [1;32mP[0m [1;32mP[0m [1;30m_[0m [1;32mP[0m [1;32mP[0m [1;32mP[0m 
1 | [1;32mR[0m [1;32mN[0m [1;32mB[0m [1;32mQ[0m [1;32mK[0m [1;32mB[0m [1;32mN[0m [1;32mR[0m 
-------------------
  | A B C D E F G H 

It is white's turn to play.
Best move: b1c3
Evaluation: 160
Node count: 42325

Total time: 1005.74 ms
[32;1m[Game] [0mPlayer's error code: 0
[32;1m[Game] [0mChecking move validity...
[32;1m[Board] [0mInitializing board...
[32;1m[Board] [0mLoading history file `championship/lizzie-iii-chess-ai/history.csv`...
[32;1m[Board] [0mLoaded 2 move(s).
[32;1m[Board] [0mLoading move file `championship/lizzie-iii-chess-ai/move.csv`...
[32;1m[Board] [0mWhite player is playing b1 to c3.
[32;1m[Board] [0m
[32;1m[Board] [0m    a b c d e f g h 
[32;1m[Board] [0m  -------------------
[32;1m[Board] [0m8 ||[30;1mr[0m|[30;1mk[0m|[30;1mb[0m|[30;1mQ[0m|[30;1mK[0m|[30;1mb[0m|[30;1mk[0m|[30;1mr[0m|| 8
[32;1m[Board] [0m  -------------------
[32;1m[Board] [0m7 ||[30;1mp[0m|[30;1mp[0m|[30;1mp[0m|[30;1mp[0m|[30;1mp[0m|[30;1mp[0m|[30;1mp[0m|[7;1m [0m|| 7
[32;1m[Board] [0m  -------------------
[32;1m[Board] [0m6 ||[7;1m [0m| |[7;1m [0m| |[7;1m [0m| |[7;1m [0m| || 6
[32;1m[Board] [0m  -------------------
[32;1m[Board] [0m5 || |[7;1m [0m| |[7;1m [0m| |[7;1m [0m| |[30;1mp[0m|| 5
[32;1m[Board] [0m  -------------------
[32;1m[Board] [0m4 ||[7;1m [0m| |[7;1m [0m| |[0;1mp[0m| |[7;1m [0m| || 4
[32;1m[Board] [0m  -------------------
[32;1m[Board] [0m3 || |[7;1m [0m|[0;1mk[0m|[7;1m [0m| |[7;1m [0m| |[7;1m [0m|| 3
[32;1m[Board] [0m  -------------------
[32;1m[Board] [0m2 ||[0;1mp[0m|[0;1mp[0m|[0;1mp[0m|[0;1mp[0m|[7;1m [0m|[0;1mp[0m|[0;1mp[0m|[0;1mp[0m|| 2
[32;1m[Board] [0m  -------------------
[32;1m[Board] [0m1 ||[0;1mr[0m|[7;1m [0m|[0;1mb[0m|[0;1mQ[0m|[0;1mK[0m|[0;1mb[0m|[0;1mk[0m|[0;1mr[0m|| 1
[32;1m[Board] [0m  -------------------
[32;1m[Board] [0m    a b c d e f g h
[32;1m[Board] [0m
[32;1m[Referee] [0mThis is the turn of the Black player...
5    a    b    c    d    e    f    g    h
  +----+----+----+----+----+----+----+----+
8 | mR | mN | mB | mQ | mK | mB | mN | mR | 8
  +----+----+----+----+----+----+----+----+
7 | mP | mP | mP | mP | mP | mP | mP | mP | 7
  +----+----+----+----+----+----+----+----+
6 |    |    |    |    |    |    |    |    | 6
  +----+----+----+----+----+----+----+----+
5 |    |    |    |    |    |    |    |    | 5
  +----+----+----+----+----+----+----+----+
4 |    |    |    |    | oP |    |    |    | 4
  +----+----+----+----+----+----+----+----+
3 |    |    |    |    |    |    |    |    | 3
  +----+----+----+----+----+----+----+----+
2 | oP | oP | oP | oP |    | oP | oP | oP | 2
  +----+----+----+----+----+----+----+----+
1 | oR | oN | oB | oQ | oK | oB | oN | oR | 1
  +----+----+----+----+----+----+----+----+
    a    b    c    d    e    f    g   h

    a    b    c    d    e    f    g    h
  +----+----+----+----+----+----+----+----+
8 | mR | mN | mB | mQ | mK | mB | mN | mR | 8
  +----+----+----+----+----+----+----+----+
7 | mP | mP | mP | mP | mP | mP | mP |    | 7
  +----+----+----+----+----+----+----+----+
6 |    |    |    |    |    |    |    |    | 6
  +----+----+----+----+----+----+----+----+
5 |    |    |    |    |    |    |    | mP | 5
  +----+----+----+----+----+----+----+----+
4 |    |    |    |    | oP |    |    |    | 4
  +----+----+----+----+----+----+----+----+
3 |    |    |    |    |    |    |    |    | 3
  +----+----+----+----+----+----+----+----+
2 | oP | oP | oP | oP |    | oP | oP | oP | 2
  +----+----+----+----+----+----+----+----+
1 | oR | oN | oB | oQ | oK | oB | oN | oR | 1
  +----+----+----+----+----+----+----+----+
    a    b    c    d    e    f    g   h

    a    b    c    d    e    f    g    h
  +----+----+----+----+----+----+----+----+
8 | mR | mN | mB | mQ | mK | mB | mN | mR | 8
  +----+----+----+----+----+----+----+----+
7 | mP | mP | mP | mP | mP | mP | mP |    | 7
  +----+----+----+----+----+----+----+----+
6 |    |    |    |    |    |    |    |    | 6
  +----+----+----+----+----+----+----+----+
5 |    |    |    |    |    |    |    | mP | 5
  +----+----+----+----+----+----+----+----+
4 |    |    |    |    | oP |    |    |    | 4
  +----+----+----+----+----+----+----+----+
3 |    |    | oN |    |    |    |    |    | 3
  +----+----+----+----+----+----+----+----+
2 | oP | oP | oP | oP |    | oP | oP | oP | 2
  +----+----+----+----+----+----+----+----+
1 | oR |    | oB | oQ | oK | oB | oN | oR | 1
  +----+----+----+----+----+----+----+----+
    a    b    c    d    e    f    g   h

    a    b    c    d    e    f    g    h
  +----+----+----+----+----+----+----+----+
8 | mR | mN | mB | mQ | mK | mB | mN | mR | 8
  +----+----+----+----+----+----+----+----+
7 | mP | mP | mP | mP | mP | mP | mP |    | 7
  +----+----+----+----+----+----+----+----+
6 |    |    |    |    |    |    |    |    | 6
  +----+----+----+----+----+----+----+----+
5 |    |    |    |    |    |    |    | mP | 5
  +----+----+----+----+----+----+----+----+
4 |    |    |    |    | oP |    |    |    | 4
  +----+----+----+----+----+----+----+----+
3 |    |    | oN |    |    |    |    |    | 3
  +----+----+----+----+----+----+----+----+
2 | oP | oP | oP | oP |    | oP | oP | oP | 2
  +----+----+----+----+----+----+----+----+
1 | oR |    | oB | oQ | oK | oB | oN | oR | 1
  +----+----+----+----+----+----+----+----+
    a    b    c    d    e    f    g   h

random move: d7d6
Move written to championship/lizzie-iii-chess-ai/move.csv successfully!
eval: -285
qrbkqrbkResult
Move: c3b1, Score: -45
Move: c3a4, Score: -55
Move: e4e3, Score: -75
Move: e1e2, Score: -85
Move: c3b5, Score: -85
Move: c3e2, Score: -85
Move: a1b1, Score: -95
Move: d1e2, Score: -100
Move: c3d5, Score: -105
Move: d1g4, Score: -105
Move: g1h3, Score: -105
Move: f1a6, Score: -105
Move: f1e2, Score: -105
Move: d1f3, Score: -110
Move: f1d3, Score: -125
Move: f1c4, Score: -125
Move: f1b5, Score: -125
Move: g1e2, Score: -135
Move: g1f3, Score: -145
Move: d1h5, Score: -195
Move: b2b1k, Score: -245
Move: b2b1b, Score: -265
Move: b2b1r, Score: -485
Move: b2b1q, Score: -875
[32;1m[Game] [0mPlayer's error code: 0
[32;1m[Game] [0mChecking move validity...
[32;1m[Board] [0mInitializing board...
[32;1m[Board] [0mLoading history file `championship/lizzie-iii-chess-ai/history.csv`...
[32;1m[Board] [0mLoaded 3 move(s).
[32;1m[Board] [0mLoading move file `championship/lizzie-iii-chess-ai/move.csv`...
[32;1m[Board] [0mBlack player is playing d7 to d6.
[32;1m[Board] [0m
[32;1m[Board] [0m    a b c d e f g h 
[32;1m[Board] [0m  -------------------
[32;1m[Board] [0m8 ||[30;1mr[0m|[30;1mk[0m|[30;1mb[0m|[30;1mQ[0m|[30;1mK[0m|[30;1mb[0m|[30;1mk[0m|[30;1mr[0m|| 8
[32;1m[Board] [0m  -------------------
[32;1m[Board] [0m7 ||[30;1mp[0m|[30;1mp[0m|[30;1mp[0m|[7;1m [0m|[30;1mp[0m|[30;1mp[0m|[30;1mp[0m|[7;1m [0m|| 7
[32;1m[Board] [0m  -------------------
[32;1m[Board] [0m6 ||[7;1m [0m| |[7;1m [0m|[30;1mp[0m|[7;1m [0m| |[7;1m [0m| || 6
[32;1m[Board] [0m  -------------------
[32;1m[Board] [0m5 || |[7;1m [0m| |[7;1m [0m| |[7;1m [0m| |[30;1mp[0m|| 5
[32;1m[Board] [0m  -------------------
[32;1m[Board] [0m4 ||[7;1m [0m| |[7;1m [0m| |[0;1mp[0m| |[7;1m [0m| || 4
[32;1m[Board] [0m  -------------------
[32;1m[Board] [0m3 || |[7;1m [0m|[0;1mk[0m|[7;1m [0m| |[7;1m [0m| |[7;1m [0m|| 3
[32;1m[Board] [0m  -------------------
[32;1m[Board] [0m2 ||[0;1mp[0m|[0;1mp[0m|[0;1mp[0m|[0;1mp[0m|[7;1m [0m|[0;1mp[0m|[0;1mp[0m|[0;1mp[0m|| 2
[32;1m[Board] [0m  -------------------
[32;1m[Board] [0m1 ||[0;1mr[0m|[7;1m [0m|[0;1mb[0m|[0;1mQ[0m|[0;1mK[0m|[0;1mb[0m|[0;1mk[0m|[0;1mr[0m|| 1
[32;1m[Board] [0m  -------------------
[32;1m[Board] [0m    a b c d e f g h
[32;1m[Board] [0m
[32;1m[Referee] [0mThis is the turn of the White player...
Input file: championship/lizzie-iii-chess-ai/history.csv
Output file: championship/lizzie-iii-chess-ai/move.csv
We are playing as White
8 | [1;31mR[0m [1;31mN[0m [1;31mB[0m [1;31mQ[0m [1;31mK[0m [1;31mB[0m [1;31mN[0m [1;31mR[0m 
7 | [1;31mP[0m [1;31mP[0m [1;31mP[0m [1;30m_[0m [1;31mP[0m [1;31mP[0m [1;31mP[0m [1;30m_[0m 
6 | [1;30m_[0m [1;30m_[0m [1;30m_[0m [1;31mP[0m [1;30m_[0m [1;30m_[0m [1;30m_[0m [1;30m_[0m 
5 | [1;30m_[0m [1;30m_[0m [1;30m_[0m [1;30m_[0m [1;30m_[0m [1;30m_[0m [1;30m_[0m [1;31mP[0m 
4 | [1;30m_[0m [1;30m_[0m [1;30m_[0m [1;30m_[0m [1;32mP[0m [1;30m_[0m [1;30m_[0m [1;30m_[0m 
3 | [1;30m_[0m [1;30m_[0m [1;32mN[0m [1;30m_[0m [1;30m_[0m [1;30m_[0m [1;30m_[0m [1;30m_[0m 
2 | [1;32mP[0m [1;32mP[0m [1;32mP[0m [1;32mP[0m [1;30m_[0m [1;32mP[0m [1;32mP[0m [1;32mP[0m 
1 | [1;32mR[0m [1;30m_[0m [1;32mB[0m [1;32mQ[0m [1;32mK[0m [1;32mB[0m [1;32mN[0m [1;32mR[0m 
-------------------
  | A B C D E F G H 

It is white's turn to play.
Best move: d2d4
Evaluation: 195
Node count: 66886

Total time: 2184.54 ms
[32;1m[Game] [0mPlayer's error code: 0
[32;1m[Game] [0mChecking move validity...
[32;1m[Board] [0mInitializing board...
[32;1m[Board] [0mLoading history file `championship/lizzie-iii-chess-ai/history.csv`...
[32;1m[Board] [0mLoaded 4 move(s).
[32;1m[Board] [0mLoading move file `championship/lizzie-iii-chess-ai/move.csv`...
[32;1m[Board] [0mWhite player is playing d2 to d4.
[32;1m[Board] [0m
[32;1m[Board] [0m    a b c d e f g h 
[32;1m[Board] [0m  -------------------
[32;1m[Board] [0m8 ||[30;1mr[0m|[30;1mk[0m|[30;1mb[0m|[30;1mQ[0m|[30;1mK[0m|[30;1mb[0m|[30;1mk[0m|[30;1mr[0m|| 8
[32;1m[Board] [0m  -------------------
[32;1m[Board] [0m7 ||[30;1mp[0m|[30;1mp[0m|[30;1mp[0m|[7;1m [0m|[30;1mp[0m|[30;1mp[0m|[30;1mp[0m|[7;1m [0m|| 7
[32;1m[Board] [0m  -------------------
[32;1m[Board] [0m6 ||[7;1m [0m| |[7;1m [0m|[30;1mp[0m|[7;1m [0m| |[7;1m [0m| || 6
[32;1m[Board] [0m  -------------------
[32;1m[Board] [0m5 || |[7;1m [0m| |[7;1m [0m| |[7;1m [0m| |[30;1mp[0m|| 5
[32;1m[Board] [0m  -------------------
[32;1m[Board] [0m4 ||[7;1m [0m| |[7;1m [0m|[0;1mp[0m|[0;1mp[0m| |[7;1m [0m| || 4
[32;1m[Board] [0m  -------------------
[32;1m[Board] [0m3 || |[7;1m [0m|[0;1mk[0m|[7;1m [0m| |[7;1m [0m| |[7;1m [0m|| 3
[32;1m[Board] [0m  -------------------
[32;1m[Board] [0m2 ||[0;1mp[0m|[0;1mp[0m|[0;1mp[0m| |[7;1m [0m|[0;1mp[0m|[0;1mp[0m|[0;1mp[0m|| 2
[32;1m[Board] [0m  -------------------
[32;1m[Board] [0m1 ||[0;1mr[0m|[7;1m [0m|[0;1mb[0m|[0;1mQ[0m|[0;1mK[0m|[0;1mb[0m|[0;1mk[0m|[0;1mr[0m|| 1
[32;1m[Board] [0m  -------------------
[32;1m[Board] [0m    a b c d e f g h
[32;1m[Board] [0m
[32;1m[Referee] [0mThis is the turn of the Black player...
5    a    b    c    d    e    f    g    h
  +----+----+----+----+----+----+----+----+
8 | mR | mN | mB | mQ | mK | mB | mN | mR | 8
  +----+----+----+----+----+----+----+----+
7 | mP | mP | mP | mP | mP | mP | mP | mP | 7
  +----+----+----+----+----+----+----+----+
6 |    |    |    |    |    |    |    |    | 6
  +----+----+----+----+----+----+----+----+
5 |    |    |    |    |    |    |    |    | 5
  +----+----+----+----+----+----+----+----+
4 |    |    |    |    | oP |    |    |    | 4
  +----+----+----+----+----+----+----+----+
3 |    |    |    |    |    |    |    |    | 3
  +----+----+----+----+----+----+----+----+
2 | oP | oP | oP | oP |    | oP | oP | oP | 2
  +----+----+----+----+----+----+----+----+
1 | oR | oN | oB | oQ | oK | oB | oN | oR | 1
  +----+----+----+----+----+----+----+----+
    a    b    c    d    e    f    g   h

    a    b    c    d    e    f    g    h
  +----+----+----+----+----+----+----+----+
8 | mR | mN | mB | mQ | mK | mB | mN | mR | 8
  +----+----+----+----+----+----+----+----+
7 | mP | mP | mP | mP | mP | mP | mP |    | 7
  +----+----+----+----+----+----+----+----+
6 |    |    |    |    |    |    |    |    | 6
  +----+----+----+----+----+----+----+----+
5 |    |    |    |    |    |    |    | mP | 5
  +----+----+----+----+----+----+----+----+
4 |    |    |    |    | oP |    |    |    | 4
  +----+----+----+----+----+----+----+----+
3 |    |    |    |    |    |    |    |    | 3
  +----+----+----+----+----+----+----+----+
2 | oP | oP | oP | oP |    | oP | oP | oP | 2
  +----+----+----+----+----+----+----+----+
1 | oR | oN | oB | oQ | oK | oB | oN | oR | 1
  +----+----+----+----+----+----+----+----+
    a    b    c    d    e    f    g   h

    a    b    c    d    e    f    g    h
  +----+----+----+----+----+----+----+----+
8 | mR | mN | mB | mQ | mK | mB | mN | mR | 8
  +----+----+----+----+----+----+----+----+
7 | mP | mP | mP | mP | mP | mP | mP |    | 7
  +----+----+----+----+----+----+----+----+
6 |    |    |    |    |    |    |    |    | 6
  +----+----+----+----+----+----+----+----+
5 |    |    |    |    |    |    |    | mP | 5
  +----+----+----+----+----+----+----+----+
4 |    |    |    |    | oP |    |    |    | 4
  +----+----+----+----+----+----+----+----+
3 |    |    | oN |    |    |    |    |    | 3
  +----+----+----+----+----+----+----+----+
2 | oP | oP | oP | oP |    | oP | oP | oP | 2
  +----+----+----+----+----+----+----+----+
1 | oR |    | oB | oQ | oK | oB | oN | oR | 1
  +----+----+----+----+----+----+----+----+
    a    b    c    d    e    f    g   h

    a    b    c    d    e    f    g    h
  +----+----+----+----+----+----+----+----+
8 | mR | mN | mB | mQ | mK | mB | mN | mR | 8
  +----+----+----+----+----+----+----+----+
7 | mP | mP | mP |    | mP | mP | mP |    | 7
  +----+----+----+----+----+----+----+----+
6 |    |    |    | mP |    |    |    |    | 6
  +----+----+----+----+----+----+----+----+
5 |    |    |    |    |    |    |    | mP | 5
  +----+----+----+----+----+----+----+----+
4 |    |    |    |    | oP |    |    |    | 4
  +----+----+----+----+----+----+----+----+
3 |    |    | oN |    |    |    |    |    | 3
  +----+----+----+----+----+----+----+----+
2 | oP | oP | oP | oP |    | oP | oP | oP | 2
  +----+----+----+----+----+----+----+----+
1 | oR |    | oB | oQ | oK | oB | oN | oR | 1
  +----+----+----+----+----+----+----+----+
    a    b    c    d    e    f    g   h

    a    b    c    d    e    f    g    h
  +----+----+----+----+----+----+----+----+
8 | mR | mN | mB | mQ | mK | mB | mN | mR | 8
  +----+----+----+----+----+----+----+----+
7 | mP | mP | mP |    | mP | mP | mP |    | 7
  +----+----+----+----+----+----+----+----+
6 |    |    |    | mP |    |    |    |    | 6
  +----+----+----+----+----+----+----+----+
5 |    |    |    |    |    |    |    | mP | 5
  +----+----+----+----+----+----+----+----+
4 |    |    |    | oP | oP |    |    |    | 4
  +----+----+----+----+----+----+----+----+
3 |    |    | oN |    |    |    |    |    | 3
  +----+----+----+----+----+----+----+----+
2 | oP | oP | oP |    |    | oP | oP | oP | 2
  +----+----+----+----+----+----+----+----+
1 | oR |    | oB | oQ | oK | oB | oN | oR | 1
  +----+----+----+----+----+----+----+----+
    a    b    c    d    e    f    g   h

    a    b    c    d    e    f    g    h
  +----+----+----+----+----+----+----+----+
8 | mR | mN | mB | mQ | mK | mB | mN | mR | 8
  +----+----+----+----+----+----+----+----+
7 | mP | mP | mP |    | mP | mP | mP |    | 7
  +----+----+----+----+----+----+----+----+
6 |    |    |    | mP |    |    |    |    | 6
  +----+----+----+----+----+----+----+----+
5 |    |    |    |    |    |    |    | mP | 5
  +----+----+----+----+----+----+----+----+
4 |    |    |    | oP | oP |    |    |    | 4
  +----+----+----+----+----+----+----+----+
3 |    |    | oN |    |    |    |    |    | 3
  +----+----+----+----+----+----+----+----+
2 | oP | oP | oP |    |    | oP | oP | oP | 2
  +----+----+----+----+----+----+----+----+
1 | oR |    | oB | oQ | oK | oB | oN | oR | 1
  +----+----+----+----+----+----+----+----+
    a    b    c    d    e    f    g   h

random move: d6d5
Move written to championship/lizzie-iii-chess-ai/move.csv successfully!
eval: -319
qrbkqrbkResult
Move: c3b1, Score: -65
Move: c3a4, Score: -75
Move: d4d3, Score: -95
Move: e4e3, Score: -95
Move: e1d2, Score: -105
Move: c3b5, Score: -105
Move: c3e2, Score: -105
Move: e1e2, Score: -105
Move: a1b1, Score: -115
Move: d1d2, Score: -120
Move: d1e2, Score: -120
Move: c3d5, Score: -125
Move: g1h3, Score: -125
Move: d1g4, Score: -125
Move: c1d2, Score: -125
Move: f1a6, Score: -125
Move: c1h6, Score: -125
Move: f1e2, Score: -125
Move: d1f3, Score: -130
Move: d1d3, Score: -135
Move: c1e3, Score: -145
Move: f1c4, Score: -145
Move: f1d3, Score: -145
Move: c1g5, Score: -145
Move: c1f4, Score: -145
Move: g1e2, Score: -155
Move: g1f3, Score: -165
Move: d1h5, Score: -215
Move: b2b1k, Score: -265
Move: b2b1b, Score: -285
Move: b2b1r, Score: -505
Move: b2b1q, Score: -895
[32;1m[Game] [0mPlayer's error code: 0
[32;1m[Game] [0mChecking move validity...
[32;1m[Board] [0mInitializing board...
[32;1m[Board] [0mLoading history file `championship/lizzie-iii-chess-ai/history.csv`...
[32;1m[Board] [0mLoaded 5 move(s).
[32;1m[Board] [0mLoading move file `championship/lizzie-iii-chess-ai/move.csv`...
[32;1m[Board] [0mBlack player is playing d6 to d5.
[32;1m[Board] [0m
[32;1m[Board] [0m    a b c d e f g h 
[32;1m[Board] [0m  -------------------
[32;1m[Board] [0m8 ||[30;1mr[0m|[30;1mk[0m|[30;1mb[0m|[30;1mQ[0m|[30;1mK[0m|[30;1mb[0m|[30;1mk[0m|[30;1mr[0m|| 8
[32;1m[Board] [0m  -------------------
[32;1m[Board] [0m7 ||[30;1mp[0m|[30;1mp[0m|[30;1mp[0m|[7;1m [0m|[30;1mp[0m|[30;1mp[0m|[30;1mp[0m|[7;1m [0m|| 7
[32;1m[Board] [0m  -------------------
[32;1m[Board] [0m6 ||[7;1m [0m| |[7;1m [0m| |[7;1m [0m| |[7;1m [0m| || 6
[32;1m[Board] [0m  -------------------
[32;1m[Board] [0m5 || |[7;1m [0m| |[30;1mp[0m| |[7;1m [0m| |[30;1mp[0m|| 5
[32;1m[Board] [0m  -------------------
[32;1m[Board] [0m4 ||[7;1m [0m| |[7;1m [0m|[0;1mp[0m|[0;1mp[0m| |[7;1m [0m| || 4
[32;1m[Board] [0m  -------------------
[32;1m[Board] [0m3 || |[7;1m [0m|[0;1mk[0m|[7;1m [0m| |[7;1m [0m| |[7;1m [0m|| 3
[32;1m[Board] [0m  -------------------
[32;1m[Board] [0m2 ||[0;1mp[0m|[0;1mp[0m|[0;1mp[0m| |[7;1m [0m|[0;1mp[0m|[0;1mp[0m|[0;1mp[0m|| 2
[32;1m[Board] [0m  -------------------
[32;1m[Board] [0m1 ||[0;1mr[0m|[7;1m [0m|[0;1mb[0m|[0;1mQ[0m|[0;1mK[0m|[0;1mb[0m|[0;1mk[0m|[0;1mr[0m|| 1
[32;1m[Board] [0m  -------------------
[32;1m[Board] [0m    a b c d e f g h
[32;1m[Board] [0m
[32;1m[Referee] [0mThis is the turn of the White player...
Input file: championship/lizzie-iii-chess-ai/history.csv
Output file: championship/lizzie-iii-chess-ai/move.csv
We are playing as White
8 | [1;31mR[0m [1;31mN[0m [1;31mB[0m [1;31mQ[0m [1;31mK[0m [1;31mB[0m [1;31mN[0m [1;31mR[0m 
7 | [1;31mP[0m [1;31mP[0m [1;31mP[0m [1;30m_[0m [1;31mP[0m [1;31mP[0m [1;31mP[0m [1;30m_[0m 
6 | [1;30m_[0m [1;30m_[0m [1;30m_[0m [1;30m_[0m [1;30m_[0m [1;30m_[0m [1;30m_[0m [1;30m_[0m 
5 | [1;30m_[0m [1;30m_[0m [1;30m_[0m [1;31mP[0m [1;30m_[0m [1;30m_[0m [1;30m_[0m [1;31mP[0m 
4 | [1;30m_[0m [1;30m_[0m [1;30m_[0m [1;32mP[0m [1;32mP[0m [1;30m_[0m [1;30m_[0m [1;30m_[0m 
3 | [1;30m_[0m [1;30m_[0m [1;32mN[0m [1;30m_[0m [1;30m_[0m [1;30m_[0m [1;30m_[0m [1;30m_[0m 
2 | [1;32mP[0m [1;32mP[0m [1;32mP[0m [1;30m_[0m [1;30m_[0m [1;32mP[0m [1;32mP[0m [1;32mP[0m 
1 | [1;32mR[0m [1;30m_[0m [1;32mB[0m [1;32mQ[0m [1;32mK[0m [1;32mB[0m [1;32mN[0m [1;32mR[0m 
-------------------
  | A B C D E F G H 

It is white's turn to play.
Best move: e4d5
Evaluation: 315
Node count: 85018

Total time: 1813.54 ms
[32;1m[Game] [0mPlayer's error code: 0
[32;1m[Game] [0mChecking move validity...
[32;1m[Board] [0mInitializing board...
[32;1m[Board] [0mLoading history file `championship/lizzie-iii-chess-ai/history.csv`...
[32;1m[Board] [0mLoaded 6 move(s).
[32;1m[Board] [0mLoading move file `championship/lizzie-iii-chess-ai/move.csv`...
[32;1m[Board] [0mWhite player is playing e4 to d5.
[32;1m[Board] [0m[5;1mWhite Pawn is taking Black Pawn.[0m
[32;1m[Board] [0m
[32;1m[Board] [0m    a b c d e f g h 
[32;1m[Board] [0m  -------------------
[32;1m[Board] [0m8 ||[30;1mr[0m|[30;1mk[0m|[30;1mb[0m|[30;1mQ[0m|[30;1mK[0m|[30;1mb[0m|[30;1mk[0m|[30;1mr[0m|| 8
[32;1m[Board] [0m  -------------------
[32;1m[Board] [0m7 ||[30;1mp[0m|[30;1mp[0m|[30;1mp[0m|[7;1m [0m|[30;1mp[0m|[30;1mp[0m|[30;1mp[0m|[7;1m [0m|| 7
[32;1m[Board] [0m  -------------------
[32;1m[Board] [0m6 ||[7;1m [0m| |[7;1m [0m| |[7;1m [0m| |[7;1m [0m| || 6
[32;1m[Board] [0m  -------------------
[32;1m[Board] [0m5 || |[7;1m [0m| |[0;1mp[0m| |[7;1m [0m| |[30;1mp[0m|| 5
[32;1m[Board] [0m  -------------------
[32;1m[Board] [0m4 ||[7;1m [0m| |[7;1m [0m|[0;1mp[0m|[7;1m [0m| |[7;1m [0m| || 4
[32;1m[Board] [0m  -------------------
[32;1m[Board] [0m3 || |[7;1m [0m|[0;1mk[0m|[7;1m [0m| |[7;1m [0m| |[7;1m [0m|| 3
[32;1m[Board] [0m  -------------------
[32;1m[Board] [0m2 ||[0;1mp[0m|[0;1mp[0m|[0;1mp[0m| |[7;1m [0m|[0;1mp[0m|[0;1mp[0m|[0;1mp[0m|| 2
[32;1m[Board] [0m  -------------------
[32;1m[Board] [0m1 ||[0;1mr[0m|[7;1m [0m|[0;1mb[0m|[0;1mQ[0m|[0;1mK[0m|[0;1mb[0m|[0;1mk[0m|[0;1mr[0m|| 1
[32;1m[Board] [0m  -------------------
[32;1m[Board] [0m    a b c d e f g h
[32;1m[Board] [0m
[32;1m[Referee] [0mThis is the turn of the Black player...
5    a    b    c    d    e    f    g    h
  +----+----+----+----+----+----+----+----+
8 | mR | mN | mB | mQ | mK | mB | mN | mR | 8
  +----+----+----+----+----+----+----+----+
7 | mP | mP | mP | mP | mP | mP | mP | mP | 7
  +----+----+----+----+----+----+----+----+
6 |    |    |    |    |    |    |    |    | 6
  +----+----+----+----+----+----+----+----+
5 |    |    |    |    |    |    |    |    | 5
  +----+----+----+----+----+----+----+----+
4 |    |    |    |    | oP |    |    |    | 4
  +----+----+----+----+----+----+----+----+
3 |    |    |    |    |    |    |    |    | 3
  +----+----+----+----+----+----+----+----+
2 | oP | oP | oP | oP |    | oP | oP | oP | 2
  +----+----+----+----+----+----+----+----+
1 | oR | oN | oB | oQ | oK | oB | oN | oR | 1
  +----+----+----+----+----+----+----+----+
    a    b    c    d    e    f    g   h

    a    b    c    d    e    f    g    h
  +----+----+----+----+----+----+----+----+
8 | mR | mN | mB | mQ | mK | mB | mN | mR | 8
  +----+----+----+----+----+----+----+----+
7 | mP | mP | mP | mP | mP | mP | mP |    | 7
  +----+----+----+----+----+----+----+----+
6 |    |    |    |    |    |    |    |    | 6
  +----+----+----+----+----+----+----+----+
5 |    |    |    |    |    |    |    | mP | 5
  +----+----+----+----+----+----+----+----+
4 |    |    |    |    | oP |    |    |    | 4
  +----+----+----+----+----+----+----+----+
3 |    |    |    |    |    |    |    |    | 3
  +----+----+----+----+----+----+----+----+
2 | oP | oP | oP | oP |    | oP | oP | oP | 2
  +----+----+----+----+----+----+----+----+
1 | oR | oN | oB | oQ | oK | oB | oN | oR | 1
  +----+----+----+----+----+----+----+----+
    a    b    c    d    e    f    g   h

    a    b    c    d    e    f    g    h
  +----+----+----+----+----+----+----+----+
8 | mR | mN | mB | mQ | mK | mB | mN | mR | 8
  +----+----+----+----+----+----+----+----+
7 | mP | mP | mP | mP | mP | mP | mP |    | 7
  +----+----+----+----+----+----+----+----+
6 |    |    |    |    |    |    |    |    | 6
  +----+----+----+----+----+----+----+----+
5 |    |    |    |    |    |    |    | mP | 5
  +----+----+----+----+----+----+----+----+
4 |    |    |    |    | oP |    |    |    | 4
  +----+----+----+----+----+----+----+----+
3 |    |    | oN |    |    |    |    |    | 3
  +----+----+----+----+----+----+----+----+
2 | oP | oP | oP | oP |    | oP | oP | oP | 2
  +----+----+----+----+----+----+----+----+
1 | oR |    | oB | oQ | oK | oB | oN | oR | 1
  +----+----+----+----+----+----+----+----+
    a    b    c    d    e    f    g   h

    a    b    c    d    e    f    g    h
  +----+----+----+----+----+----+----+----+
8 | mR | mN | mB | mQ | mK | mB | mN | mR | 8
  +----+----+----+----+----+----+----+----+
7 | mP | mP | mP |    | mP | mP | mP |    | 7
  +----+----+----+----+----+----+----+----+
6 |    |    |    | mP |    |    |    |    | 6
  +----+----+----+----+----+----+----+----+
5 |    |    |    |    |    |    |    | mP | 5
  +----+----+----+----+----+----+----+----+
4 |    |    |    |    | oP |    |    |    | 4
  +----+----+----+----+----+----+----+----+
3 |    |    | oN |    |    |    |    |    | 3
  +----+----+----+----+----+----+----+----+
2 | oP | oP | oP | oP |    | oP | oP | oP | 2
  +----+----+----+----+----+----+----+----+
1 | oR |    | oB | oQ | oK | oB | oN | oR | 1
  +----+----+----+----+----+----+----+----+
    a    b    c    d    e    f    g   h

    a    b    c    d    e    f    g    h
  +----+----+----+----+----+----+----+----+
8 | mR | mN | mB | mQ | mK | mB | mN | mR | 8
  +----+----+----+----+----+----+----+----+
7 | mP | mP | mP |    | mP | mP | mP |    | 7
  +----+----+----+----+----+----+----+----+
6 |    |    |    | mP |    |    |    |    | 6
  +----+----+----+----+----+----+----+----+
5 |    |    |    |    |    |    |    | mP | 5
  +----+----+----+----+----+----+----+----+
4 |    |    |    | oP | oP |    |    |    | 4
  +----+----+----+----+----+----+----+----+
3 |    |    | oN |    |    |    |    |    | 3
  +----+----+----+----+----+----+----+----+
2 | oP | oP | oP |    |    | oP | oP | oP | 2
  +----+----+----+----+----+----+----+----+
1 | oR |    | oB | oQ | oK | oB | oN | oR | 1
  +----+----+----+----+----+----+----+----+
    a    b    c    d    e    f    g   h

    a    b    c    d    e    f    g    h
  +----+----+----+----+----+----+----+----+
8 | mR | mN | mB | mQ | mK | mB | mN | mR | 8
  +----+----+----+----+----+----+----+----+
7 | mP | mP | mP |    | mP | mP | mP |    | 7
  +----+----+----+----+----+----+----+----+
6 |    |    |    |    |    |    |    |    | 6
  +----+----+----+----+----+----+----+----+
5 |    |    |    | mP |    |    |    | mP | 5
  +----+----+----+----+----+----+----+----+
4 |    |    |    | oP | oP |    |    |    | 4
  +----+----+----+----+----+----+----+----+
3 |    |    | oN |    |    |    |    |    | 3
  +----+----+----+----+----+----+----+----+
2 | oP | oP | oP |    |    | oP | oP | oP | 2
  +----+----+----+----+----+----+----+----+
1 | oR |    | oB | oQ | oK | oB | oN | oR | 1
  +----+----+----+----+----+----+----+----+
    a    b    c    d    e    f    g   h

    a    b    c    d    e    f    g    h
  +----+----+----+----+----+----+----+----+
8 | mR | mN | mB | mQ | mK | mB | mN | mR | 8
  +----+----+----+----+----+----+----+----+
7 | mP | mP | mP |    | mP | mP | mP |    | 7
  +----+----+----+----+----+----+----+----+
6 |    |    |    |    |    |    |    |    | 6
  +----+----+----+----+----+----+----+----+
5 |    |    |    | oP |    |    |    | mP | 5
  +----+----+----+----+----+----+----+----+
4 |    |    |    | oP |    |    |    |    | 4
  +----+----+----+----+----+----+----+----+
3 |    |    | oN |    |    |    |    |    | 3
  +----+----+----+----+----+----+----+----+
2 | oP | oP | oP |    |    | oP | oP | oP | 2
  +----+----+----+----+----+----+----+----+
1 | oR |    | oB | oQ | oK | oB | oN | oR | 1
  +----+----+----+----+----+----+----+----+
    a    b    c    d    e    f    g   h

    a    b    c    d    e    f    g    h
  +----+----+----+----+----+----+----+----+
8 | mR | mN | mB | mQ | mK | mB | mN | mR | 8
  +----+----+----+----+----+----+----+----+
7 | mP | mP | mP |    | mP | mP | mP |    | 7
  +----+----+----+----+----+----+----+----+
6 |    |    |    |    |    |    |    |    | 6
  +----+----+----+----+----+----+----+----+
5 |    |    |    | oP |    |    |    | mP | 5
  +----+----+----+----+----+----+----+----+
4 |    |    |    | oP |    |    |    |    | 4
  +----+----+----+----+----+----+----+----+
3 |    |    | oN |    |    |    |    |    | 3
  +----+----+----+----+----+----+----+----+
2 | oP | oP | oP |    |    | oP | oP | oP | 2
  +----+----+----+----+----+----+----+----+
1 | oR |    | oB | oQ | oK | oB | oN | oR | 1
  +----+----+----+----+----+----+----+----+
    a    b    c    d    e    f    g   h

random move: b7b6
Move written to championship/lizzie-iii-chess-ai/move.csv successfully!
eval: -339
qrbkqrbkResult
Move: c3b1, Score: -170
Move: c3a4, Score: -180
Move: d4d3, Score: -200
Move: e1d2, Score: -210
Move: c3b5, Score: -210
Move: c3e2, Score: -210
Move: e1e2, Score: -210
Move: a1b1, Score: -220
Move: d1d2, Score: -225
Move: d1e2, Score: -225
Move: c3e4, Score: -230
Move: g1h3, Score: -230
Move: d1g4, Score: -230
Move: c1d2, Score: -230
Move: f1a6, Score: -230
Move: c1h6, Score: -230
Move: f1e2, Score: -230
Move: d1f3, Score: -235
Move: d1d3, Score: -240
Move: c1e3, Score: -250
Move: f1c4, Score: -250
Move: f1d3, Score: -250
Move: c1g5, Score: -250
Move: c1f4, Score: -250
Move: g1e2, Score: -260
Move: g1f3, Score: -270
Move: d1h5, Score: -320
Move: b2b1k, Score: -370
Move: b2b1b, Score: -390
Move: b2b1r, Score: -610
Move: b2b1q, Score: -1000
[32;1m[Game] [0mPlayer's error code: 0
[32;1m[Game] [0mChecking move validity...
[32;1m[Board] [0mInitializing board...
[32;1m[Board] [0mLoading history file `championship/lizzie-iii-chess-ai/history.csv`...
[32;1m[Board] [0mLoaded 7 move(s).
[32;1m[Board] [0mLoading move file `championship/lizzie-iii-chess-ai/move.csv`...
[32;1m[Board] [0mBlack player is playing b7 to b6.
[32;1m[Board] [0m
[32;1m[Board] [0m    a b c d e f g h 
[32;1m[Board] [0m  -------------------
[32;1m[Board] [0m8 ||[30;1mr[0m|[30;1mk[0m|[30;1mb[0m|[30;1mQ[0m|[30;1mK[0m|[30;1mb[0m|[30;1mk[0m|[30;1mr[0m|| 8
[32;1m[Board] [0m  -------------------
[32;1m[Board] [0m7 ||[30;1mp[0m|[7;1m [0m|[30;1mp[0m|[7;1m [0m|[30;1mp[0m|[30;1mp[0m|[30;1mp[0m|[7;1m [0m|| 7
[32;1m[Board] [0m  -------------------
[32;1m[Board] [0m6 ||[7;1m [0m|[30;1mp[0m|[7;1m [0m| |[7;1m [0m| |[7;1m [0m| || 6
[32;1m[Board] [0m  -------------------
[32;1m[Board] [0m5 || |[7;1m [0m| |[0;1mp[0m| |[7;1m [0m| |[30;1mp[0m|| 5
[32;1m[Board] [0m  -------------------
[32;1m[Board] [0m4 ||[7;1m [0m| |[7;1m [0m|[0;1mp[0m|[7;1m [0m| |[7;1m [0m| || 4
[32;1m[Board] [0m  -------------------
[32;1m[Board] [0m3 || |[7;1m [0m|[0;1mk[0m|[7;1m [0m| |[7;1m [0m| |[7;1m [0m|| 3
[32;1m[Board] [0m  -------------------
[32;1m[Board] [0m2 ||[0;1mp[0m|[0;1mp[0m|[0;1mp[0m| |[7;1m [0m|[0;1mp[0m|[0;1mp[0m|[0;1mp[0m|| 2
[32;1m[Board] [0m  -------------------
[32;1m[Board] [0m1 ||[0;1mr[0m|[7;1m [0m|[0;1mb[0m|[0;1mQ[0m|[0;1mK[0m|[0;1mb[0m|[0;1mk[0m|[0;1mr[0m|| 1
[32;1m[Board] [0m  -------------------
[32;1m[Board] [0m    a b c d e f g h
[32;1m[Board] [0m
[32;1m[Referee] [0mThis is the turn of the White player...
Input file: championship/lizzie-iii-chess-ai/history.csv
Output file: championship/lizzie-iii-chess-ai/move.csv
We are playing as White
8 | [1;31mR[0m [1;31mN[0m [1;31mB[0m [1;31mQ[0m [1;31mK[0m [1;31mB[0m [1;31mN[0m [1;31mR[0m 
7 | [1;31mP[0m [1;30m_[0m [1;31mP[0m [1;30m_[0m [1;31mP[0m [1;31mP[0m [1;31mP[0m [1;30m_[0m 
6 | [1;30m_[0m [1;31mP[0m [1;30m_[0m [1;30m_[0m [1;30m_[0m [1;30m_[0m [1;30m_[0m [1;30m_[0m 
5 | [1;30m_[0m [1;30m_[0m [1;30m_[0m [1;32mP[0m [1;30m_[0m [1;30m_[0m [1;30m_[0m [1;31mP[0m 
4 | [1;30m_[0m [1;30m_[0m [1;30m_[0m [1;32mP[0m [1;30m_[0m [1;30m_[0m [1;30m_[0m [1;30m_[0m 
3 | [1;30m_[0m [1;30m_[0m [1;32mN[0m [1;30m_[0m [1;30m_[0m [1;30m_[0m [1;30m_[0m [1;30m_[0m 
2 | [1;32mP[0m [1;32mP[0m [1;32mP[0m [1;30m_[0m [1;30m_[0m [1;32mP[0m [1;32mP[0m [1;32mP[0m 
1 | [1;32mR[0m [1;30m_[0m [1;32mB[0m [1;32mQ[0m [1;32mK[0m [1;32mB[0m [1;32mN[0m [1;32mR[0m 
-------------------
  | A B C D E F G H 

It is white's turn to play.
Best move: c1g5
Evaluation: 350
Node count: 116748

Total time: 3257.33 ms
[32;1m[Game] [0mPlayer's error code: 0
[32;1m[Game] [0mChecking move validity...
[32;1m[Board] [0mInitializing board...
[32;1m[Board] [0mLoading history file `championship/lizzie-iii-chess-ai/history.csv`...
[32;1m[Board] [0mLoaded 8 move(s).
[32;1m[Board] [0mLoading move file `championship/lizzie-iii-chess-ai/move.csv`...
[32;1m[Board] [0mWhite player is playing c1 to g5.
[32;1m[Board] [0m
[32;1m[Board] [0m    a b c d e f g h 
[32;1m[Board] [0m  -------------------
[32;1m[Board] [0m8 ||[30;1mr[0m|[30;1mk[0m|[30;1mb[0m|[30;1mQ[0m|[30;1mK[0m|[30;1mb[0m|[30;1mk[0m|[30;1mr[0m|| 8
[32;1m[Board] [0m  -------------------
[32;1m[Board] [0m7 ||[30;1mp[0m|[7;1m [0m|[30;1mp[0m|[7;1m [0m|[30;1mp[0m|[30;1mp[0m|[30;1mp[0m|[7;1m [0m|| 7
[32;1m[Board] [0m  -------------------
[32;1m[Board] [0m6 ||[7;1m [0m|[30;1mp[0m|[7;1m [0m| |[7;1m [0m| |[7;1m [0m| || 6
[32;1m[Board] [0m  -------------------
[32;1m[Board] [0m5 || |[7;1m [0m| |[0;1mp[0m| |[7;1m [0m|[0;1mb[0m|[30;1mp[0m|| 5
[32;1m[Board] [0m  -------------------
[32;1m[Board] [0m4 ||[7;1m [0m| |[7;1m [0m|[0;1mp[0m|[7;1m [0m| |[7;1m [0m| || 4
[32;1m[Board] [0m  -------------------
[32;1m[Board] [0m3 || |[7;1m [0m|[0;1mk[0m|[7;1m [0m| |[7;1m [0m| |[7;1m [0m|| 3
[32;1m[Board] [0m  -------------------
[32;1m[Board] [0m2 ||[0;1mp[0m|[0;1mp[0m|[0;1mp[0m| |[7;1m [0m|[0;1mp[0m|[0;1mp[0m|[0;1mp[0m|| 2
[32;1m[Board] [0m  -------------------
[32;1m[Board] [0m1 ||[0;1mr[0m|[7;1m [0m| |[0;1mQ[0m|[0;1mK[0m|[0;1mb[0m|[0;1mk[0m|[0;1mr[0m|| 1
[32;1m[Board] [0m  -------------------
[32;1m[Board] [0m    a b c d e f g h
[32;1m[Board] [0m
[32;1m[Referee] [0mThis is the turn of the Black player...
5    a    b    c    d    e    f    g    h
  +----+----+----+----+----+----+----+----+
8 | mR | mN | mB | mQ | mK | mB | mN | mR | 8
  +----+----+----+----+----+----+----+----+
7 | mP | mP | mP | mP | mP | mP | mP | mP | 7
  +----+----+----+----+----+----+----+----+
6 |    |    |    |    |    |    |    |    | 6
  +----+----+----+----+----+----+----+----+
5 |    |    |    |    |    |    |    |    | 5
  +----+----+----+----+----+----+----+----+
4 |    |    |    |    | oP |    |    |    | 4
  +----+----+----+----+----+----+----+----+
3 |    |    |    |    |    |    |    |    | 3
  +----+----+----+----+----+----+----+----+
2 | oP | oP | oP | oP |    | oP | oP | oP | 2
  +----+----+----+----+----+----+----+----+
1 | oR | oN | oB | oQ | oK | oB | oN | oR | 1
  +----+----+----+----+----+----+----+----+
    a    b    c    d    e    f    g   h

    a    b    c    d    e    f    g    h
  +----+----+----+----+----+----+----+----+
8 | mR | mN | mB | mQ | mK | mB | mN | mR | 8
  +----+----+----+----+----+----+----+----+
7 | mP | mP | mP | mP | mP | mP | mP |    | 7
  +----+----+----+----+----+----+----+----+
6 |    |    |    |    |    |    |    |    | 6
  +----+----+----+----+----+----+----+----+
5 |    |    |    |    |    |    |    | mP | 5
  +----+----+----+----+----+----+----+----+
4 |    |    |    |    | oP |    |    |    | 4
  +----+----+----+----+----+----+----+----+
3 |    |    |    |    |    |    |    |    | 3
  +----+----+----+----+----+----+----+----+
2 | oP | oP | oP | oP |    | oP | oP | oP | 2
  +----+----+----+----+----+----+----+----+
1 | oR | oN | oB | oQ | oK | oB | oN | oR | 1
  +----+----+----+----+----+----+----+----+
    a    b    c    d    e    f    g   h

    a    b    c    d    e    f    g    h
  +----+----+----+----+----+----+----+----+
8 | mR | mN | mB | mQ | mK | mB | mN | mR | 8
  +----+----+----+----+----+----+----+----+
7 | mP | mP | mP | mP | mP | mP | mP |    | 7
  +----+----+----+----+----+----+----+----+
6 |    |    |    |    |    |    |    |    | 6
  +----+----+----+----+----+----+----+----+
5 |    |    |    |    |    |    |    | mP | 5
  +----+----+----+----+----+----+----+----+
4 |    |    |    |    | oP |    |    |    | 4
  +----+----+----+----+----+----+----+----+
3 |    |    | oN |    |    |    |    |    | 3
  +----+----+----+----+----+----+----+----+
2 | oP | oP | oP | oP |    | oP | oP | oP | 2
  +----+----+----+----+----+----+----+----+
1 | oR |    | oB | oQ | oK | oB | oN | oR | 1
  +----+----+----+----+----+----+----+----+
    a    b    c    d    e    f    g   h

    a    b    c    d    e    f    g    h
  +----+----+----+----+----+----+----+----+
8 | mR | mN | mB | mQ | mK | mB | mN | mR | 8
  +----+----+----+----+----+----+----+----+
7 | mP | mP | mP |    | mP | mP | mP |    | 7
  +----+----+----+----+----+----+----+----+
6 |    |    |    | mP |    |    |    |    | 6
  +----+----+----+----+----+----+----+----+
5 |    |    |    |    |    |    |    | mP | 5
  +----+----+----+----+----+----+----+----+
4 |    |    |    |    | oP |    |    |    | 4
  +----+----+----+----+----+----+----+----+
3 |    |    | oN |    |    |    |    |    | 3
  +----+----+----+----+----+----+----+----+
2 | oP | oP | oP | oP |    | oP | oP | oP | 2
  +----+----+----+----+----+----+----+----+
1 | oR |    | oB | oQ | oK | oB | oN | oR | 1
  +----+----+----+----+----+----+----+----+
    a    b    c    d    e    f    g   h

    a    b    c    d    e    f    g    h
  +----+----+----+----+----+----+----+----+
8 | mR | mN | mB | mQ | mK | mB | mN | mR | 8
  +----+----+----+----+----+----+----+----+
7 | mP | mP | mP |    | mP | mP | mP |    | 7
  +----+----+----+----+----+----+----+----+
6 |    |    |    | mP |    |    |    |    | 6
  +----+----+----+----+----+----+----+----+
5 |    |    |    |    |    |    |    | mP | 5
  +----+----+----+----+----+----+----+----+
4 |    |    |    | oP | oP |    |    |    | 4
  +----+----+----+----+----+----+----+----+
3 |    |    | oN |    |    |    |    |    | 3
  +----+----+----+----+----+----+----+----+
2 | oP | oP | oP |    |    | oP | oP | oP | 2
  +----+----+----+----+----+----+----+----+
1 | oR |    | oB | oQ | oK | oB | oN | oR | 1
  +----+----+----+----+----+----+----+----+
    a    b    c    d    e    f    g   h

    a    b    c    d    e    f    g    h
  +----+----+----+----+----+----+----+----+
8 | mR | mN | mB | mQ | mK | mB | mN | mR | 8
  +----+----+----+----+----+----+----+----+
7 | mP | mP | mP |    | mP | mP | mP |    | 7
  +----+----+----+----+----+----+----+----+
6 |    |    |    |    |    |    |    |    | 6
  +----+----+----+----+----+----+----+----+
5 |    |    |    | mP |    |    |    | mP | 5
  +----+----+----+----+----+----+----+----+
4 |    |    |    | oP | oP |    |    |    | 4
  +----+----+----+----+----+----+----+----+
3 |    |    | oN |    |    |    |    |    | 3
  +----+----+----+----+----+----+----+----+
2 | oP | oP | oP |    |    | oP | oP | oP | 2
  +----+----+----+----+----+----+----+----+
1 | oR |    | oB | oQ | oK | oB | oN | oR | 1
  +----+----+----+----+----+----+----+----+
    a    b    c    d    e    f    g   h

    a    b    c    d    e    f    g    h
  +----+----+----+----+----+----+----+----+
8 | mR | mN | mB | mQ | mK | mB | mN | mR | 8
  +----+----+----+----+----+----+----+----+
7 | mP | mP | mP |    | mP | mP | mP |    | 7
  +----+----+----+----+----+----+----+----+
6 |    |    |    |    |    |    |    |    | 6
  +----+----+----+----+----+----+----+----+
5 |    |    |    | oP |    |    |    | mP | 5
  +----+----+----+----+----+----+----+----+
4 |    |    |    | oP |    |    |    |    | 4
  +----+----+----+----+----+----+----+----+
3 |    |    | oN |    |    |    |    |    | 3
  +----+----+----+----+----+----+----+----+
2 | oP | oP | oP |    |    | oP | oP | oP | 2
  +----+----+----+----+----+----+----+----+
1 | oR |    | oB | oQ | oK | oB | oN | oR | 1
  +----+----+----+----+----+----+----+----+
    a    b    c    d    e    f    g   h

    a    b    c    d    e    f    g    h
  +----+----+----+----+----+----+----+----+
8 | mR | mN | mB | mQ | mK | mB | mN | mR | 8
  +----+----+----+----+----+----+----+----+
7 | mP |    | mP |    | mP | mP | mP |    | 7
  +----+----+----+----+----+----+----+----+
6 |    | mP |    |    |    |    |    |    | 6
  +----+----+----+----+----+----+----+----+
5 |    |    |    | oP |    |    |    | mP | 5
  +----+----+----+----+----+----+----+----+
4 |    |    |    | oP |    |    |    |    | 4
  +----+----+----+----+----+----+----+----+
3 |    |    | oN |    |    |    |    |    | 3
  +----+----+----+----+----+----+----+----+
2 | oP | oP | oP |    |    | oP | oP | oP | 2
  +----+----+----+----+----+----+----+----+
1 | oR |    | oB | oQ | oK | oB | oN | oR | 1
  +----+----+----+----+----+----+----+----+
    a    b    c    d    e    f    g   h

    a    b    c    d    e    f    g    h
  +----+----+----+----+----+----+----+----+
8 | mR | mN | mB | mQ | mK | mB | mN | mR | 8
  +----+----+----+----+----+----+----+----+
7 | mP |    | mP |    | mP | mP | mP |    | 7
  +----+----+----+----+----+----+----+----+
6 |    | mP |    |    |    |    |    |    | 6
  +----+----+----+----+----+----+----+----+
5 |    |    |    | oP |    |    | oB | mP | 5
  +----+----+----+----+----+----+----+----+
4 |    |    |    | oP |    |    |    |    | 4
  +----+----+----+----+----+----+----+----+
3 |    |    | oN |    |    |    |    |    | 3
  +----+----+----+----+----+----+----+----+
2 | oP | oP | oP |    |    | oP | oP | oP | 2
  +----+----+----+----+----+----+----+----+
1 | oR |    |    | oQ | oK | oB | oN | oR | 1
  +----+----+----+----+----+----+----+----+
    a    b    c    d    e    f    g   h

    a    b    c    d    e    f    g    h
  +----+----+----+----+----+----+----+----+
8 | mR | mN | mB | mQ | mK | mB | mN | mR | 8
  +----+----+----+----+----+----+----+----+
7 | mP |    | mP |    | mP | mP | mP |    | 7
  +----+----+----+----+----+----+----+----+
6 |    | mP |    |    |    |    |    |    | 6
  +----+----+----+----+----+----+----+----+
5 |    |    |    | oP |    |    | oB | mP | 5
  +----+----+----+----+----+----+----+----+
4 |    |    |    | oP |    |    |    |    | 4
  +----+----+----+----+----+----+----+----+
3 |    |    | oN |    |    |    |    |    | 3
  +----+----+----+----+----+----+----+----+
2 | oP | oP | oP |    |    | oP | oP | oP | 2
  +----+----+----+----+----+----+----+----+
1 | oR |    |    | oQ | oK | oB | oN | oR | 1
  +----+----+----+----+----+----+----+----+
    a    b    c    d    e    f    g   h

random move: h8h6
Move written to championship/lizzie-iii-chess-ai/move.csv successfully!
eval: -490
qrbkqrbkqrbkqrbkResult
Move: c3b1, Score: -215
Move: c3a4, Score: -225
Move: g5c1, Score: -235
Move: g5d2, Score: -245
Move: d4d3, Score: -245
Move: g5h4, Score: -245
Move: g5h6, Score: -245
Move: e1d2, Score: -255
Move: e1e2, Score: -255
Move: c3e2, Score: -255
Move: c3b5, Score: -255
Move: d1b1, Score: -260
Move: d1c1, Score: -260
Move: g5f6, Score: -265
Move: g5e3, Score: -265
Move: g5f4, Score: -265
Move: a1c1, Score: -265
Move: a1b1, Score: -265
Move: d1d2, Score: -270
Move: d1e2, Score: -270
Move: g1h3, Score: -275
Move: c3e4, Score: -275
Move: d1g4, Score: -275
Move: f1a6, Score: -275
Move: f1e2, Score: -275
Move: d1f3, Score: -280
Move: d1d3, Score: -285
Move: f1d3, Score: -295
Move: f1c4, Score: -295
Move: g1e2, Score: -305
Move: g1f3, Score: -315
Move: g5e7, Score: -345
Move: d1h5, Score: -365
Move: b2b1k, Score: -415
Move: c2c1k, Score: -425
Move: c2c1b, Score: -435
Move: b2b1b, Score: -435
Move: c2c1r, Score: -655
Move: b2b1r, Score: -655
Move: b2b1q, Score: -1045
Move: c2c1q, Score: -1045
[32;1m[Game] [0mPlayer's error code: 0
[32;1m[Game] [0mChecking move validity...
[32;1m[Board] [0mInitializing board...
[32;1m[Board] [0mLoading history file `championship/lizzie-iii-chess-ai/history.csv`...
[32;1m[Board] [0mLoaded 9 move(s).
[32;1m[Board] [0mLoading move file `championship/lizzie-iii-chess-ai/move.csv`...
[32;1m[Board] [0mBlack player is playing h8 to h6.
[32;1m[Board] [0m
[32;1m[Board] [0m    a b c d e f g h 
[32;1m[Board] [0m  -------------------
[32;1m[Board] [0m8 ||[30;1mr[0m|[30;1mk[0m|[30;1mb[0m|[30;1mQ[0m|[30;1mK[0m|[30;1mb[0m|[30;1mk[0m| || 8
[32;1m[Board] [0m  -------------------
[32;1m[Board] [0m7 ||[30;1mp[0m|[7;1m [0m|[30;1mp[0m|[7;1m [0m|[30;1mp[0m|[30;1mp[0m|[30;1mp[0m|[7;1m [0m|| 7
[32;1m[Board] [0m  -------------------
[32;1m[Board] [0m6 ||[7;1m [0m|[30;1mp[0m|[7;1m [0m| |[7;1m [0m| |[7;1m [0m|[30;1mr[0m|| 6
[32;1m[Board] [0m  -------------------
[32;1m[Board] [0m5 || |[7;1m [0m| |[0;1mp[0m| |[7;1m [0m|[0;1mb[0m|[30;1mp[0m|| 5
[32;1m[Board] [0m  -------------------
[32;1m[Board] [0m4 ||[7;1m [0m| |[7;1m [0m|[0;1mp[0m|[7;1m [0m| |[7;1m [0m| || 4
[32;1m[Board] [0m  -------------------
[32;1m[Board] [0m3 || |[7;1m [0m|[0;1mk[0m|[7;1m [0m| |[7;1m [0m| |[7;1m [0m|| 3
[32;1m[Board] [0m  -------------------
[32;1m[Board] [0m2 ||[0;1mp[0m|[0;1mp[0m|[0;1mp[0m| |[7;1m [0m|[0;1mp[0m|[0;1mp[0m|[0;1mp[0m|| 2
[32;1m[Board] [0m  -------------------
[32;1m[Board] [0m1 ||[0;1mr[0m|[7;1m [0m| |[0;1mQ[0m|[0;1mK[0m|[0;1mb[0m|[0;1mk[0m|[0;1mr[0m|| 1
[32;1m[Board] [0m  -------------------
[32;1m[Board] [0m    a b c d e f g h
[32;1m[Board] [0m
[32;1m[Referee] [0mThis is the turn of the White player...
Input file: championship/lizzie-iii-chess-ai/history.csv
Output file: championship/lizzie-iii-chess-ai/move.csv
We are playing as White
8 | [1;31mR[0m [1;31mN[0m [1;31mB[0m [1;31mQ[0m [1;31mK[0m [1;31mB[0m [1;31mN[0m [1;30m_[0m 
7 | [1;31mP[0m [1;30m_[0m [1;31mP[0m [1;30m_[0m [1;31mP[0m [1;31mP[0m [1;31mP[0m [1;30m_[0m 
6 | [1;30m_[0m [1;31mP[0m [1;30m_[0m [1;30m_[0m [1;30m_[0m [1;30m_[0m [1;30m_[0m [1;31mR[0m 
5 | [1;30m_[0m [1;30m_[0m [1;30m_[0m [1;32mP[0m [1;30m_[0m [1;30m_[0m [1;32mB[0m [1;31mP[0m 
4 | [1;30m_[0m [1;30m_[0m [1;30m_[0m [1;32mP[0m [1;30m_[0m [1;30m_[0m [1;30m_[0m [1;30m_[0m 
3 | [1;30m_[0m [1;30m_[0m [1;32mN[0m [1;30m_[0m [1;30m_[0m [1;30m_[0m [1;30m_[0m [1;30m_[0m 
2 | [1;32mP[0m [1;32mP[0m [1;32mP[0m [1;30m_[0m [1;30m_[0m [1;32mP[0m [1;32mP[0m [1;32mP[0m 
1 | [1;32mR[0m [1;30m_[0m [1;30m_[0m [1;32mQ[0m [1;32mK[0m [1;32mB[0m [1;32mN[0m [1;32mR[0m 
-------------------
  | A B C D E F G H 

It is white's turn to play.
Best move: g5h6
Evaluation: 605
Node count: 91457

Total time: 2195.05 ms
[32;1m[Game] [0mPlayer's error code: 0
[32;1m[Game] [0mChecking move validity...
[32;1m[Board] [0mInitializing board...
[32;1m[Board] [0mLoading history file `championship/lizzie-iii-chess-ai/history.csv`...
[32;1m[Board] [0mLoaded 10 move(s).
[32;1m[Board] [0mLoading move file `championship/lizzie-iii-chess-ai/move.csv`...
[32;1m[Board] [0mWhite player is playing g5 to h6.
[32;1m[Board] [0m[5;1mWhite Bishop is taking Black Rook.[0m
[32;1m[Board] [0m
[32;1m[Board] [0m    a b c d e f g h 
[32;1m[Board] [0m  -------------------
[32;1m[Board] [0m8 ||[30;1mr[0m|[30;1mk[0m|[30;1mb[0m|[30;1mQ[0m|[30;1mK[0m|[30;1mb[0m|[30;1mk[0m| || 8
[32;1m[Board] [0m  -------------------
[32;1m[Board] [0m7 ||[30;1mp[0m|[7;1m [0m|[30;1mp[0m|[7;1m [0m|[30;1mp[0m|[30;1mp[0m|[30;1mp[0m|[7;1m [0m|| 7
[32;1m[Board] [0m  -------------------
[32;1m[Board] [0m6 ||[7;1m [0m|[30;1mp[0m|[7;1m [0m| |[7;1m [0m| |[7;1m [0m|[0;1mb[0m|| 6
[32;1m[Board] [0m  -------------------
[32;1m[Board] [0m5 || |[7;1m [0m| |[0;1mp[0m| |[7;1m [0m| |[30;1mp[0m|| 5
[32;1m[Board] [0m  -------------------
[32;1m[Board] [0m4 ||[7;1m [0m| |[7;1m [0m|[0;1mp[0m|[7;1m [0m| |[7;1m [0m| || 4
[32;1m[Board] [0m  -------------------
[32;1m[Board] [0m3 || |[7;1m [0m|[0;1mk[0m|[7;1m [0m| |[7;1m [0m| |[7;1m [0m|| 3
[32;1m[Board] [0m  -------------------
[32;1m[Board] [0m2 ||[0;1mp[0m|[0;1mp[0m|[0;1mp[0m| |[7;1m [0m|[0;1mp[0m|[0;1mp[0m|[0;1mp[0m|| 2
[32;1m[Board] [0m  -------------------
[32;1m[Board] [0m1 ||[0;1mr[0m|[7;1m [0m| |[0;1mQ[0m|[0;1mK[0m|[0;1mb[0m|[0;1mk[0m|[0;1mr[0m|| 1
[32;1m[Board] [0m  -------------------
[32;1m[Board] [0m    a b c d e f g h
[32;1m[Board] [0m
[32;1m[Referee] [0mThis is the turn of the Black player...
5    a    b    c    d    e    f    g    h
  +----+----+----+----+----+----+----+----+
8 | mR | mN | mB | mQ | mK | mB | mN | mR | 8
  +----+----+----+----+----+----+----+----+
7 | mP | mP | mP | mP | mP | mP | mP | mP | 7
  +----+----+----+----+----+----+----+----+
6 |    |    |    |    |    |    |    |    | 6
  +----+----+----+----+----+----+----+----+
5 |    |    |    |    |    |    |    |    | 5
  +----+----+----+----+----+----+----+----+
4 |    |    |    |    | oP |    |    |    | 4
  +----+----+----+----+----+----+----+----+
3 |    |    |    |    |    |    |    |    | 3
  +----+----+----+----+----+----+----+----+
2 | oP | oP | oP | oP |    | oP | oP | oP | 2
  +----+----+----+----+----+----+----+----+
1 | oR | oN | oB | oQ | oK | oB | oN | oR | 1
  +----+----+----+----+----+----+----+----+
    a    b    c    d    e    f    g   h

    a    b    c    d    e    f    g    h
  +----+----+----+----+----+----+----+----+
8 | mR | mN | mB | mQ | mK | mB | mN | mR | 8
  +----+----+----+----+----+----+----+----+
7 | mP | mP | mP | mP | mP | mP | mP |    | 7
  +----+----+----+----+----+----+----+----+
6 |    |    |    |    |    |    |    |    | 6
  +----+----+----+----+----+----+----+----+
5 |    |    |    |    |    |    |    | mP | 5
  +----+----+----+----+----+----+----+----+
4 |    |    |    |    | oP |    |    |    | 4
  +----+----+----+----+----+----+----+----+
3 |    |    |    |    |    |    |    |    | 3
  +----+----+----+----+----+----+----+----+
2 | oP | oP | oP | oP |    | oP | oP | oP | 2
  +----+----+----+----+----+----+----+----+
1 | oR | oN | oB | oQ | oK | oB | oN | oR | 1
  +----+----+----+----+----+----+----+----+
    a    b    c    d    e    f    g   h

    a    b    c    d    e    f    g    h
  +----+----+----+----+----+----+----+----+
8 | mR | mN | mB | mQ | mK | mB | mN | mR | 8
  +----+----+----+----+----+----+----+----+
7 | mP | mP | mP | mP | mP | mP | mP |    | 7
  +----+----+----+----+----+----+----+----+
6 |    |    |    |    |    |    |    |    | 6
  +----+----+----+----+----+----+----+----+
5 |    |    |    |    |    |    |    | mP | 5
  +----+----+----+----+----+----+----+----+
4 |    |    |    |    | oP |    |    |    | 4
  +----+----+----+----+----+----+----+----+
3 |    |    | oN |    |    |    |    |    | 3
  +----+----+----+----+----+----+----+----+
2 | oP | oP | oP | oP |    | oP | oP | oP | 2
  +----+----+----+----+----+----+----+----+
1 | oR |    | oB | oQ | oK | oB | oN | oR | 1
  +----+----+----+----+----+----+----+----+
    a    b    c    d    e    f    g   h

    a    b    c    d    e    f    g    h
  +----+----+----+----+----+----+----+----+
8 | mR | mN | mB | mQ | mK | mB | mN | mR | 8
  +----+----+----+----+----+----+----+----+
7 | mP | mP | mP |    | mP | mP | mP |    | 7
  +----+----+----+----+----+----+----+----+
6 |    |    |    | mP |    |    |    |    | 6
  +----+----+----+----+----+----+----+----+
5 |    |    |    |    |    |    |    | mP | 5
  +----+----+----+----+----+----+----+----+
4 |    |    |    |    | oP |    |    |    | 4
  +----+----+----+----+----+----+----+----+
3 |    |    | oN |    |    |    |    |    | 3
  +----+----+----+----+----+----+----+----+
2 | oP | oP | oP | oP |    | oP | oP | oP | 2
  +----+----+----+----+----+----+----+----+
1 | oR |    | oB | oQ | oK | oB | oN | oR | 1
  +----+----+----+----+----+----+----+----+
    a    b    c    d    e    f    g   h

    a    b    c    d    e    f    g    h
  +----+----+----+----+----+----+----+----+
8 | mR | mN | mB | mQ | mK | mB | mN | mR | 8
  +----+----+----+----+----+----+----+----+
7 | mP | mP | mP |    | mP | mP | mP |    | 7
  +----+----+----+----+----+----+----+----+
6 |    |    |    | mP |    |    |    |    | 6
  +----+----+----+----+----+----+----+----+
5 |    |    |    |    |    |    |    | mP | 5
  +----+----+----+----+----+----+----+----+
4 |    |    |    | oP | oP |    |    |    | 4
  +----+----+----+----+----+----+----+----+
3 |    |    | oN |    |    |    |    |    | 3
  +----+----+----+----+----+----+----+----+
2 | oP | oP | oP |    |    | oP | oP | oP | 2
  +----+----+----+----+----+----+----+----+
1 | oR |    | oB | oQ | oK | oB | oN | oR | 1
  +----+----+----+----+----+----+----+----+
    a    b    c    d    e    f    g   h

    a    b    c    d    e    f    g    h
  +----+----+----+----+----+----+----+----+
8 | mR | mN | mB | mQ | mK | mB | mN | mR | 8
  +----+----+----+----+----+----+----+----+
7 | mP | mP | mP |    | mP | mP | mP |    | 7
  +----+----+----+----+----+----+----+----+
6 |    |    |    |    |    |    |    |    | 6
  +----+----+----+----+----+----+----+----+
5 |    |    |    | mP |    |    |    | mP | 5
  +----+----+----+----+----+----+----+----+
4 |    |    |    | oP | oP |    |    |    | 4
  +----+----+----+----+----+----+----+----+
3 |    |    | oN |    |    |    |    |    | 3
  +----+----+----+----+----+----+----+----+
2 | oP | oP | oP |    |    | oP | oP | oP | 2
  +----+----+----+----+----+----+----+----+
1 | oR |    | oB | oQ | oK | oB | oN | oR | 1
  +----+----+----+----+----+----+----+----+
    a    b    c    d    e    f    g   h

    a    b    c    d    e    f    g    h
  +----+----+----+----+----+----+----+----+
8 | mR | mN | mB | mQ | mK | mB | mN | mR | 8
  +----+----+----+----+----+----+----+----+
7 | mP | mP | mP |    | mP | mP | mP |    | 7
  +----+----+----+----+----+----+----+----+
6 |    |    |    |    |    |    |    |    | 6
  +----+----+----+----+----+----+----+----+
5 |    |    |    | oP |    |    |    | mP | 5
  +----+----+----+----+----+----+----+----+
4 |    |    |    | oP |    |    |    |    | 4
  +----+----+----+----+----+----+----+----+
3 |    |    | oN |    |    |    |    |    | 3
  +----+----+----+----+----+----+----+----+
2 | oP | oP | oP |    |    | oP | oP | oP | 2
  +----+----+----+----+----+----+----+----+
1 | oR |    | oB | oQ | oK | oB | oN | oR | 1
  +----+----+----+----+----+----+----+----+
    a    b    c    d    e    f    g   h

    a    b    c    d    e    f    g    h
  +----+----+----+----+----+----+----+----+
8 | mR | mN | mB | mQ | mK | mB | mN | mR | 8
  +----+----+----+----+----+----+----+----+
7 | mP |    | mP |    | mP | mP | mP |    | 7
  +----+----+----+----+----+----+----+----+
6 |    | mP |    |    |    |    |    |    | 6
  +----+----+----+----+----+----+----+----+
5 |    |    |    | oP |    |    |    | mP | 5
  +----+----+----+----+----+----+----+----+
4 |    |    |    | oP |    |    |    |    | 4
  +----+----+----+----+----+----+----+----+
3 |    |    | oN |    |    |    |    |    | 3
  +----+----+----+----+----+----+----+----+
2 | oP | oP | oP |    |    | oP | oP | oP | 2
  +----+----+----+----+----+----+----+----+
1 | oR |    | oB | oQ | oK | oB | oN | oR | 1
  +----+----+----+----+----+----+----+----+
    a    b    c    d    e    f    g   h

    a    b    c    d    e    f    g    h
  +----+----+----+----+----+----+----+----+
8 | mR | mN | mB | mQ | mK | mB | mN | mR | 8
  +----+----+----+----+----+----+----+----+
7 | mP |    | mP |    | mP | mP | mP |    | 7
  +----+----+----+----+----+----+----+----+
6 |    | mP |    |    |    |    |    |    | 6
  +----+----+----+----+----+----+----+----+
5 |    |    |    | oP |    |    | oB | mP | 5
  +----+----+----+----+----+----+----+----+
4 |    |    |    | oP |    |    |    |    | 4
  +----+----+----+----+----+----+----+----+
3 |    |    | oN |    |    |    |    |    | 3
  +----+----+----+----+----+----+----+----+
2 | oP | oP | oP |    |    | oP | oP | oP | 2
  +----+----+----+----+----+----+----+----+
1 | oR |    |    | oQ | oK | oB | oN | oR | 1
  +----+----+----+----+----+----+----+----+
    a    b    c    d    e    f    g   h

    a    b    c    d    e    f    g    h
  +----+----+----+----+----+----+----+----+
8 | mR | mN | mB | mQ | mK | mB | mN |    | 8
  +----+----+----+----+----+----+----+----+
7 | mP |    | mP |    | mP | mP | mP |    | 7
  +----+----+----+----+----+----+----+----+
6 |    | mP |    |    |    |    |    | mR | 6
  +----+----+----+----+----+----+----+----+
5 |    |    |    | oP |    |    | oB | mP | 5
  +----+----+----+----+----+----+----+----+
4 |    |    |    | oP |    |    |    |    | 4
  +----+----+----+----+----+----+----+----+
3 |    |    | oN |    |    |    |    |    | 3
  +----+----+----+----+----+----+----+----+
2 | oP | oP | oP |    |    | oP | oP | oP | 2
  +----+----+----+----+----+----+----+----+
1 | oR |    |    | oQ | oK | oB | oN | oR | 1
  +----+----+----+----+----+----+----+----+
    a    b    c    d    e    f    g   h

    a    b    c    d    e    f    g    h
  +----+----+----+----+----+----+----+----+
8 | mR | mN | mB | mQ | mK | mB | mN |    | 8
  +----+----+----+----+----+----+----+----+
7 | mP |    | mP |    | mP | mP | mP |    | 7
  +----+----+----+----+----+----+----+----+
6 |    | mP |    |    |    |    |    | oB | 6
  +----+----+----+----+----+----+----+----+
5 |    |    |    | oP |    |    |    | mP | 5
  +----+----+----+----+----+----+----+----+
4 |    |    |    | oP |    |    |    |    | 4
  +----+----+----+----+----+----+----+----+
3 |    |    | oN |    |    |    |    |    | 3
  +----+----+----+----+----+----+----+----+
2 | oP | oP | oP |    |    | oP | oP | oP | 2
  +----+----+----+----+----+----+----+----+
1 | oR |    |    | oQ | oK | oB | oN | oR | 1
  +----+----+----+----+----+----+----+----+
    a    b    c    d    e    f    g   h

    a    b    c    d    e    f    g    h
  +----+----+----+----+----+----+----+----+
8 | mR | mN | mB | mQ | mK | mB | mN |    | 8
  +----+----+----+----+----+----+----+----+
7 | mP |    | mP |    | mP | mP | mP |    | 7
  +----+----+----+----+----+----+----+----+
6 |    | mP |    |    |    |    |    | oB | 6
  +----+----+----+----+----+----+----+----+
5 |    |    |    | oP |    |    |    | mP | 5
  +----+----+----+----+----+----+----+----+
4 |    |    |    | oP |    |    |    |    | 4
  +----+----+----+----+----+----+----+----+
3 |    |    | oN |    |    |    |    |    | 3
  +----+----+----+----+----+----+----+----+
2 | oP | oP | oP |    |    | oP | oP | oP | 2
  +----+----+----+----+----+----+----+----+
1 | oR |    |    | oQ | oK | oB | oN | oR | 1
  +----+----+----+----+----+----+----+----+
    a    b    c    d    e    f    g   h

random move: f7f6
Move written to championship/lizzie-iii-chess-ai/move.csv successfully!
eval: -928
qrbkqrbkqrbkqrbkResult
Move: c3b1, Score: -695
Move: c3a4, Score: -705
Move: d4d3, Score: -725
Move: e1d2, Score: -735
Move: h6c1, Score: -735
Move: c3b5, Score: -735
Move: c3e2, Score: -735
Move: e1e2, Score: -735
Move: d1c1, Score: -740
Move: d1b1, Score: -740
Move: a1b1, Score: -745
Move: a1c1, Score: -745
Move: h6d2, Score: -745
Move: d1d2, Score: -750
Move: d1e2, Score: -750
Move: d1g4, Score: -755
Move: f1a6, Score: -755
Move: f1e2, Score: -755
Move: g1h3, Score: -755
Move: c3e4, Score: -755
Move: d1f3, Score: -760
Move: h6g5, Score: -765
Move: h6f4, Score: -765
Move: h6e3, Score: -765
Move: d1d3, Score: -765
Move: f1d3, Score: -775
Move: f1c4, Score: -775
Move: g1e2, Score: -785
Move: g1f3, Score: -795
Move: d1h5, Score: -845
Move: h6g7, Score: -865
Move: b2b1k, Score: -895
Move: c2c1k, Score: -905
Move: c2c1b, Score: -915
Move: b2b1b, Score: -915
Move: c2c1r, Score: -1135
Move: b2b1r, Score: -1135
Move: b2b1q, Score: -1525
Move: c2c1q, Score: -1525
[32;1m[Game] [0mPlayer's error code: 0
[32;1m[Game] [0mChecking move validity...
[32;1m[Board] [0mInitializing board...
[32;1m[Board] [0mLoading history file `championship/lizzie-iii-chess-ai/history.csv`...
[32;1m[Board] [0mLoaded 11 move(s).
[32;1m[Board] [0mLoading move file `championship/lizzie-iii-chess-ai/move.csv`...
[32;1m[Board] [0mBlack player is playing f7 to f6.
[32;1m[Board] [0m
[32;1m[Board] [0m    a b c d e f g h 
[32;1m[Board] [0m  -------------------
[32;1m[Board] [0m8 ||[30;1mr[0m|[30;1mk[0m|[30;1mb[0m|[30;1mQ[0m|[30;1mK[0m|[30;1mb[0m|[30;1mk[0m| || 8
[32;1m[Board] [0m  -------------------
[32;1m[Board] [0m7 ||[30;1mp[0m|[7;1m [0m|[30;1mp[0m|[7;1m [0m|[30;1mp[0m|[7;1m [0m|[30;1mp[0m|[7;1m [0m|| 7
[32;1m[Board] [0m  -------------------
[32;1m[Board] [0m6 ||[7;1m [0m|[30;1mp[0m|[7;1m [0m| |[7;1m [0m|[30;1mp[0m|[7;1m [0m|[0;1mb[0m|| 6
[32;1m[Board] [0m  -------------------
[32;1m[Board] [0m5 || |[7;1m [0m| |[0;1mp[0m| |[7;1m [0m| |[30;1mp[0m|| 5
[32;1m[Board] [0m  -------------------
[32;1m[Board] [0m4 ||[7;1m [0m| |[7;1m [0m|[0;1mp[0m|[7;1m [0m| |[7;1m [0m| || 4
[32;1m[Board] [0m  -------------------
[32;1m[Board] [0m3 || |[7;1m [0m|[0;1mk[0m|[7;1m [0m| |[7;1m [0m| |[7;1m [0m|| 3
[32;1m[Board] [0m  -------------------
[32;1m[Board] [0m2 ||[0;1mp[0m|[0;1mp[0m|[0;1mp[0m| |[7;1m [0m|[0;1mp[0m|[0;1mp[0m|[0;1mp[0m|| 2
[32;1m[Board] [0m  -------------------
[32;1m[Board] [0m1 ||[0;1mr[0m|[7;1m [0m| |[0;1mQ[0m|[0;1mK[0m|[0;1mb[0m|[0;1mk[0m|[0;1mr[0m|| 1
[32;1m[Board] [0m  -------------------
[32;1m[Board] [0m    a b c d e f g h
[32;1m[Board] [0m
[32;1m[Referee] [0mThis is the turn of the White player...
Input file: championship/lizzie-iii-chess-ai/history.csv
Output file: championship/lizzie-iii-chess-ai/move.csv
We are playing as White
8 | [1;31mR[0m [1;31mN[0m [1;31mB[0m [1;31mQ[0m [1;31mK[0m [1;31mB[0m [1;31mN[0m [1;30m_[0m 
7 | [1;31mP[0m [1;30m_[0m [1;31mP[0m [1;30m_[0m [1;31mP[0m [1;30m_[0m [1;31mP[0m [1;30m_[0m 
6 | [1;30m_[0m [1;31mP[0m [1;30m_[0m [1;30m_[0m [1;30m_[0m [1;31mP[0m [1;30m_[0m [1;32mB[0m 
5 | [1;30m_[0m [1;30m_[0m [1;30m_[0m [1;32mP[0m [1;30m_[0m [1;30m_[0m [1;30m_[0m [1;31mP[0m 
4 | [1;30m_[0m [1;30m_[0m [1;30m_[0m [1;32mP[0m [1;30m_[0m [1;30m_[0m [1;30m_[0m [1;30m_[0m 
3 | [1;30m_[0m [1;30m_[0m [1;32mN[0m [1;30m_[0m [1;30m_[0m [1;30m_[0m [1;30m_[0m [1;30m_[0m 
2 | [1;32mP[0m [1;32mP[0m [1;32mP[0m [1;30m_[0m [1;30m_[0m [1;32mP[0m [1;32mP[0m [1;32mP[0m 
1 | [1;32mR[0m [1;30m_[0m [1;30m_[0m [1;32mQ[0m [1;32mK[0m [1;32mB[0m [1;32mN[0m [1;32mR[0m 
-------------------
  | A B C D E F G H 

It is white's turn to play.
Best move: d1h5
Evaluation: 1030
Node count: 68269

Total time: 2118.64 ms
[32;1m[Game] [0mPlayer's error code: 0
[32;1m[Game] [0mChecking move validity...
[32;1m[Board] [0mInitializing board...
[32;1m[Board] [0mLoading history file `championship/lizzie-iii-chess-ai/history.csv`...
[32;1m[Board] [0mLoaded 12 move(s).
[32;1m[Board] [0mLoading move file `championship/lizzie-iii-chess-ai/move.csv`...
[32;1m[Board] [0mWhite player is playing d1 to h5.
[32;1m[Board] [0m[5;1mWhite Queen is taking Black Pawn.[0m
[32;1m[Board] [0m
[32;1m[Board] [0m    a b c d e f g h 
[32;1m[Board] [0m  -------------------
[32;1m[Board] [0m8 ||[30;1mr[0m|[30;1mk[0m|[30;1mb[0m|[30;1mQ[0m|[30;1mK[0m|[30;1mb[0m|[30;1mk[0m| || 8
[32;1m[Board] [0m  -------------------
[32;1m[Board] [0m7 ||[30;1mp[0m|[7;1m [0m|[30;1mp[0m|[7;1m [0m|[30;1mp[0m|[7;1m [0m|[30;1mp[0m|[7;1m [0m|| 7
[32;1m[Board] [0m  -------------------
[32;1m[Board] [0m6 ||[7;1m [0m|[30;1mp[0m|[7;1m [0m| |[7;1m [0m|[30;1mp[0m|[7;1m [0m|[0;1mb[0m|| 6
[32;1m[Board] [0m  -------------------
[32;1m[Board] [0m5 || |[7;1m [0m| |[0;1mp[0m| |[7;1m [0m| |[0;1mQ[0m|| 5
[32;1m[Board] [0m  -------------------
[32;1m[Board] [0m4 ||[7;1m [0m| |[7;1m [0m|[0;1mp[0m|[7;1m [0m| |[7;1m [0m| || 4
[32;1m[Board] [0m  -------------------
[32;1m[Board] [0m3 || |[7;1m [0m|[0;1mk[0m|[7;1m [0m| |[7;1m [0m| |[7;1m [0m|| 3
[32;1m[Board] [0m  -------------------
[32;1m[Board] [0m2 ||[0;1mp[0m|[0;1mp[0m|[0;1mp[0m| |[7;1m [0m|[0;1mp[0m|[0;1mp[0m|[0;1mp[0m|| 2
[32;1m[Board] [0m  -------------------
[32;1m[Board] [0m1 ||[0;1mr[0m|[7;1m [0m| |[7;1m [0m|[0;1mK[0m|[0;1mb[0m|[0;1mk[0m|[0;1mr[0m|| 1
[32;1m[Board] [0m  -------------------
[32;1m[Board] [0m    a b c d e f g h
[32;1m[Board] [0m
[32;1m[Referee] [0mThis is the turn of the Black player...
[32;1m[Board] [0m[33;1m[WARNING][0m [5;1mBlack King in check![0m
[32;1m[Board] [0m[33;1m[WARNING][0m    Threatened by White Queen (h5)
5    a    b    c    d    e    f    g    h
  +----+----+----+----+----+----+----+----+
8 | mR | mN | mB | mQ | mK | mB | mN | mR | 8
  +----+----+----+----+----+----+----+----+
7 | mP | mP | mP | mP | mP | mP | mP | mP | 7
  +----+----+----+----+----+----+----+----+
6 |    |    |    |    |    |    |    |    | 6
  +----+----+----+----+----+----+----+----+
5 |    |    |    |    |    |    |    |    | 5
  +----+----+----+----+----+----+----+----+
4 |    |    |    |    | oP |    |    |    | 4
  +----+----+----+----+----+----+----+----+
3 |    |    |    |    |    |    |    |    | 3
  +----+----+----+----+----+----+----+----+
2 | oP | oP | oP | oP |    | oP | oP | oP | 2
  +----+----+----+----+----+----+----+----+
1 | oR | oN | oB | oQ | oK | oB | oN | oR | 1
  +----+----+----+----+----+----+----+----+
    a    b    c    d    e    f    g   h

    a    b    c    d    e    f    g    h
  +----+----+----+----+----+----+----+----+
8 | mR | mN | mB | mQ | mK | mB | mN | mR | 8
  +----+----+----+----+----+----+----+----+
7 | mP | mP | mP | mP | mP | mP | mP |    | 7
  +----+----+----+----+----+----+----+----+
6 |    |    |    |    |    |    |    |    | 6
  +----+----+----+----+----+----+----+----+
5 |    |    |    |    |    |    |    | mP | 5
  +----+----+----+----+----+----+----+----+
4 |    |    |    |    | oP |    |    |    | 4
  +----+----+----+----+----+----+----+----+
3 |    |    |    |    |    |    |    |    | 3
  +----+----+----+----+----+----+----+----+
2 | oP | oP | oP | oP |    | oP | oP | oP | 2
  +----+----+----+----+----+----+----+----+
1 | oR | oN | oB | oQ | oK | oB | oN | oR | 1
  +----+----+----+----+----+----+----+----+
    a    b    c    d    e    f    g   h

    a    b    c    d    e    f    g    h
  +----+----+----+----+----+----+----+----+
8 | mR | mN | mB | mQ | mK | mB | mN | mR | 8
  +----+----+----+----+----+----+----+----+
7 | mP | mP | mP | mP | mP | mP | mP |    | 7
  +----+----+----+----+----+----+----+----+
6 |    |    |    |    |    |    |    |    | 6
  +----+----+----+----+----+----+----+----+
5 |    |    |    |    |    |    |    | mP | 5
  +----+----+----+----+----+----+----+----+
4 |    |    |    |    | oP |    |    |    | 4
  +----+----+----+----+----+----+----+----+
3 |    |    | oN |    |    |    |    |    | 3
  +----+----+----+----+----+----+----+----+
2 | oP | oP | oP | oP |    | oP | oP | oP | 2
  +----+----+----+----+----+----+----+----+
1 | oR |    | oB | oQ | oK | oB | oN | oR | 1
  +----+----+----+----+----+----+----+----+
    a    b    c    d    e    f    g   h

    a    b    c    d    e    f    g    h
  +----+----+----+----+----+----+----+----+
8 | mR | mN | mB | mQ | mK | mB | mN | mR | 8
  +----+----+----+----+----+----+----+----+
7 | mP | mP | mP |    | mP | mP | mP |    | 7
  +----+----+----+----+----+----+----+----+
6 |    |    |    | mP |    |    |    |    | 6
  +----+----+----+----+----+----+----+----+
5 |    |    |    |    |    |    |    | mP | 5
  +----+----+----+----+----+----+----+----+
4 |    |    |    |    | oP |    |    |    | 4
  +----+----+----+----+----+----+----+----+
3 |    |    | oN |    |    |    |    |    | 3
  +----+----+----+----+----+----+----+----+
2 | oP | oP | oP | oP |    | oP | oP | oP | 2
  +----+----+----+----+----+----+----+----+
1 | oR |    | oB | oQ | oK | oB | oN | oR | 1
  +----+----+----+----+----+----+----+----+
    a    b    c    d    e    f    g   h

    a    b    c    d    e    f    g    h
  +----+----+----+----+----+----+----+----+
8 | mR | mN | mB | mQ | mK | mB | mN | mR | 8
  +----+----+----+----+----+----+----+----+
7 | mP | mP | mP |    | mP | mP | mP |    | 7
  +----+----+----+----+----+----+----+----+
6 |    |    |    | mP |    |    |    |    | 6
  +----+----+----+----+----+----+----+----+
5 |    |    |    |    |    |    |    | mP | 5
  +----+----+----+----+----+----+----+----+
4 |    |    |    | oP | oP |    |    |    | 4
  +----+----+----+----+----+----+----+----+
3 |    |    | oN |    |    |    |    |    | 3
  +----+----+----+----+----+----+----+----+
2 | oP | oP | oP |    |    | oP | oP | oP | 2
  +----+----+----+----+----+----+----+----+
1 | oR |    | oB | oQ | oK | oB | oN | oR | 1
  +----+----+----+----+----+----+----+----+
    a    b    c    d    e    f    g   h

    a    b    c    d    e    f    g    h
  +----+----+----+----+----+----+----+----+
8 | mR | mN | mB | mQ | mK | mB | mN | mR | 8
  +----+----+----+----+----+----+----+----+
7 | mP | mP | mP |    | mP | mP | mP |    | 7
  +----+----+----+----+----+----+----+----+
6 |    |    |    |    |    |    |    |    | 6
  +----+----+----+----+----+----+----+----+
5 |    |    |    | mP |    |    |    | mP | 5
  +----+----+----+----+----+----+----+----+
4 |    |    |    | oP | oP |    |    |    | 4
  +----+----+----+----+----+----+----+----+
3 |    |    | oN |    |    |    |    |    | 3
  +----+----+----+----+----+----+----+----+
2 | oP | oP | oP |    |    | oP | oP | oP | 2
  +----+----+----+----+----+----+----+----+
1 | oR |    | oB | oQ | oK | oB | oN | oR | 1
  +----+----+----+----+----+----+----+----+
    a    b    c    d    e    f    g   h

    a    b    c    d    e    f    g    h
  +----+----+----+----+----+----+----+----+
8 | mR | mN | mB | mQ | mK | mB | mN | mR | 8
  +----+----+----+----+----+----+----+----+
7 | mP | mP | mP |    | mP | mP | mP |    | 7
  +----+----+----+----+----+----+----+----+
6 |    |    |    |    |    |    |    |    | 6
  +----+----+----+----+----+----+----+----+
5 |    |    |    | oP |    |    |    | mP | 5
  +----+----+----+----+----+----+----+----+
4 |    |    |    | oP |    |    |    |    | 4
  +----+----+----+----+----+----+----+----+
3 |    |    | oN |    |    |    |    |    | 3
  +----+----+----+----+----+----+----+----+
2 | oP | oP | oP |    |    | oP | oP | oP | 2
  +----+----+----+----+----+----+----+----+
1 | oR |    | oB | oQ | oK | oB | oN | oR | 1
  +----+----+----+----+----+----+----+----+
    a    b    c    d    e    f    g   h

    a    b    c    d    e    f    g    h
  +----+----+----+----+----+----+----+----+
8 | mR | mN | mB | mQ | mK | mB | mN | mR | 8
  +----+----+----+----+----+----+----+----+
7 | mP |    | mP |    | mP | mP | mP |    | 7
  +----+----+----+----+----+----+----+----+
[...]
8 |    |    |    |    |    |    |    |    | 8
  +----+----+----+----+----+----+----+----+
7 |    | oB | oQ |    |    |    |    |    | 7
  +----+----+----+----+----+----+----+----+
6 |    | mP |    |    |    |    |    |    | 6
  +----+----+----+----+----+----+----+----+
5 |    |    |    |    | oQ |    |    | mK | 5
  +----+----+----+----+----+----+----+----+
4 |    |    |    | oP |    |    | mP |    | 4
  +----+----+----+----+----+----+----+----+
3 |    |    | oN |    |    |    |    |    | 3
  +----+----+----+----+----+----+----+----+
2 | oP | oP | oP |    |    | oP |    | oP | 2
  +----+----+----+----+----+----+----+----+
1 | oR |    |    |    | oK |    | oN | oR | 1
  +----+----+----+----+----+----+----+----+
    a    b    c    d    e    f    g   h

    a    b    c    d    e    f    g    h
  +----+----+----+----+----+----+----+----+
8 |    |    |    |    |    |    |    |    | 8
  +----+----+----+----+----+----+----+----+
7 |    | oB | oQ |    |    |    |    |    | 7
  +----+----+----+----+----+----+----+----+
6 |    | mP |    |    |    |    | mK |    | 6
  +----+----+----+----+----+----+----+----+
5 |    |    |    |    | oQ |    |    |    | 5
  +----+----+----+----+----+----+----+----+
4 |    |    |    | oP |    |    | mP |    | 4
  +----+----+----+----+----+----+----+----+
3 |    |    | oN |    |    |    |    |    | 3
  +----+----+----+----+----+----+----+----+
2 | oP | oP | oP |    |    | oP |    | oP | 2
  +----+----+----+----+----+----+----+----+
1 | oR |    |    |    | oK |    | oN | oR | 1
  +----+----+----+----+----+----+----+----+
    a    b    c    d    e    f    g   h

    a    b    c    d    e    f    g    h
  +----+----+----+----+----+----+----+----+
8 |    |    |    |    |    |    |    |    | 8
  +----+----+----+----+----+----+----+----+
7 |    |    | oQ |    |    |    |    |    | 7
  +----+----+----+----+----+----+----+----+
6 |    | mP |    |    |    |    | mK |    | 6
  +----+----+----+----+----+----+----+----+
5 |    |    |    |    | oQ |    |    |    | 5
  +----+----+----+----+----+----+----+----+
4 |    |    |    | oP | oB |    | mP |    | 4
  +----+----+----+----+----+----+----+----+
3 |    |    | oN |    |    |    |    |    | 3
  +----+----+----+----+----+----+----+----+
2 | oP | oP | oP |    |    | oP |    | oP | 2
  +----+----+----+----+----+----+----+----+
1 | oR |    |    |    | oK |    | oN | oR | 1
  +----+----+----+----+----+----+----+----+
    a    b    c    d    e    f    g   h

    a    b    c    d    e    f    g    h
  +----+----+----+----+----+----+----+----+
8 |    |    |    |    |    |    |    |    | 8
  +----+----+----+----+----+----+----+----+
7 |    |    | oQ |    |    |    |    |    | 7
  +----+----+----+----+----+----+----+----+
6 |    | mP |    |    |    |    |    | mK | 6
  +----+----+----+----+----+----+----+----+
5 |    |    |    |    | oQ |    |    |    | 5
  +----+----+----+----+----+----+----+----+
4 |    |    |    | oP | oB |    | mP |    | 4
  +----+----+----+----+----+----+----+----+
3 |    |    | oN |    |    |    |    |    | 3
  +----+----+----+----+----+----+----+----+
2 | oP | oP | oP |    |    | oP |    | oP | 2
  +----+----+----+----+----+----+----+----+
1 | oR |    |    |    | oK |    | oN | oR | 1
  +----+----+----+----+----+----+----+----+
    a    b    c    d    e    f    g   h

    a    b    c    d    e    f    g    h
  +----+----+----+----+----+----+----+----+
8 |    |    |    |    |    |    |    |    | 8
  +----+----+----+----+----+----+----+----+
7 |    |    | oQ |    |    |    |    |    | 7
  +----+----+----+----+----+----+----+----+
6 |    | mP |    |    |    | oQ |    | mK | 6
  +----+----+----+----+----+----+----+----+
5 |    |    |    |    |    |    |    |    | 5
  +----+----+----+----+----+----+----+----+
4 |    |    |    | oP | oB |    | mP |    | 4
  +----+----+----+----+----+----+----+----+
3 |    |    | oN |    |    |    |    |    | 3
  +----+----+----+----+----+----+----+----+
2 | oP | oP | oP |    |    | oP |    | oP | 2
  +----+----+----+----+----+----+----+----+
1 | oR |    |    |    | oK |    | oN | oR | 1
  +----+----+----+----+----+----+----+----+
    a    b    c    d    e    f    g   h

    a    b    c    d    e    f    g    h
  +----+----+----+----+----+----+----+----+
8 |    |    |    |    |    |    |    |    | 8
  +----+----+----+----+----+----+----+----+
7 |    |    | oQ |    |    |    |    |    | 7
  +----+----+----+----+----+----+----+----+
6 |    | mP |    |    |    | oQ |    |    | 6
  +----+----+----+----+----+----+----+----+
5 |    |    |    |    |    |    |    | mK | 5
  +----+----+----+----+----+----+----+----+
4 |    |    |    | oP | oB |    | mP |    | 4
  +----+----+----+----+----+----+----+----+
3 |    |    | oN |    |    |    |    |    | 3
  +----+----+----+----+----+----+----+----+
2 | oP | oP | oP |    |    | oP |    | oP | 2
  +----+----+----+----+----+----+----+----+
1 | oR |    |    |    | oK |    | oN | oR | 1
  +----+----+----+----+----+----+----+----+
    a    b    c    d    e    f    g   h

    a    b    c    d    e    f    g    h
  +----+----+----+----+----+----+----+----+
8 |    |    |    |    |    |    |    |    | 8
  +----+----+----+----+----+----+----+----+
7 |    |    | oQ |    |    |    |    |    | 7
  +----+----+----+----+----+----+----+----+
6 |    | mP |    |    |    | oQ | oB |    | 6
  +----+----+----+----+----+----+----+----+
5 |    |    |    |    |    |    |    | mK | 5
  +----+----+----+----+----+----+----+----+
4 |    |    |    | oP |    |    | mP |    | 4
  +----+----+----+----+----+----+----+----+
3 |    |    | oN |    |    |    |    |    | 3
  +----+----+----+----+----+----+----+----+
2 | oP | oP | oP |    |    | oP |    | oP | 2
  +----+----+----+----+----+----+----+----+
1 | oR |    |    |    | oK |    | oN | oR | 1
  +----+----+----+----+----+----+----+----+
    a    b    c    d    e    f    g   h

    a    b    c    d    e    f    g    h
  +----+----+----+----+----+----+----+----+
8 |    |    |    |    |    |    |    |    | 8
  +----+----+----+----+----+----+----+----+
7 |    |    | oQ |    |    |    |    |    | 7
  +----+----+----+----+----+----+----+----+
6 |    | mP |    |    |    | oQ | oB | mK | 6
  +----+----+----+----+----+----+----+----+
5 |    |    |    |    |    |    |    |    | 5
  +----+----+----+----+----+----+----+----+
4 |    |    |    | oP |    |    | mP |    | 4
  +----+----+----+----+----+----+----+----+
3 |    |    | oN |    |    |    |    |    | 3
  +----+----+----+----+----+----+----+----+
2 | oP | oP | oP |    |    | oP |    | oP | 2
  +----+----+----+----+----+----+----+----+
1 | oR |    |    |    | oK |    | oN | oR | 1
  +----+----+----+----+----+----+----+----+
    a    b    c    d    e    f    g   h

    a    b    c    d    e    f    g    h
  +----+----+----+----+----+----+----+----+
8 |    |    |    |    |    |    |    |    | 8
  +----+----+----+----+----+----+----+----+
7 |    |    | oQ |    |    |    | oQ |    | 7
  +----+----+----+----+----+----+----+----+
6 |    | mP |    |    |    |    | oB | mK | 6
  +----+----+----+----+----+----+----+----+
5 |    |    |    |    |    |    |    |    | 5
  +----+----+----+----+----+----+----+----+
4 |    |    |    | oP |    |    | mP |    | 4
  +----+----+----+----+----+----+----+----+
3 |    |    | oN |    |    |    |    |    | 3
  +----+----+----+----+----+----+----+----+
2 | oP | oP | oP |    |    | oP |    | oP | 2
  +----+----+----+----+----+----+----+----+
1 | oR |    |    |    | oK |    | oN | oR | 1
  +----+----+----+----+----+----+----+----+
    a    b    c    d    e    f    g   h

    a    b    c    d    e    f    g    h
  +----+----+----+----+----+----+----+----+
8 |    |    |    |    |    |    |    |    | 8
  +----+----+----+----+----+----+----+----+
7 |    |    | oQ |    |    |    | oQ |    | 7
  +----+----+----+----+----+----+----+----+
6 |    | mP |    |    |    |    | oB |    | 6
  +----+----+----+----+----+----+----+----+
5 |    |    |    |    |    |    | mK |    | 5
  +----+----+----+----+----+----+----+----+
4 |    |    |    | oP |    |    | mP |    | 4
  +----+----+----+----+----+----+----+----+
3 |    |    | oN |    |    |    |    |    | 3
  +----+----+----+----+----+----+----+----+
2 | oP | oP | oP |    |    | oP |    | oP | 2
  +----+----+----+----+----+----+----+----+
1 | oR |    |    |    | oK |    | oN | oR | 1
  +----+----+----+----+----+----+----+----+
    a    b    c    d    e    f    g   h

    a    b    c    d    e    f    g    h
  +----+----+----+----+----+----+----+----+
8 |    |    |    |    |    |    |    |    | 8
  +----+----+----+----+----+----+----+----+
7 |    |    | oQ |    |    |    | oQ |    | 7
  +----+----+----+----+----+----+----+----+
6 |    | mP |    |    |    |    | oB |    | 6
  +----+----+----+----+----+----+----+----+
5 |    |    |    |    |    |    | mK |    | 5
  +----+----+----+----+----+----+----+----+
4 |    |    |    | oP |    |    | mP |    | 4
  +----+----+----+----+----+----+----+----+
3 |    |    | oN |    |    |    |    | oN | 3
  +----+----+----+----+----+----+----+----+
2 | oP | oP | oP |    |    | oP |    | oP | 2
  +----+----+----+----+----+----+----+----+
1 | oR |    |    |    | oK |    |    | oR | 1
  +----+----+----+----+----+----+----+----+
    a    b    c    d    e    f    g   h

    a    b    c    d    e    f    g    h
  +----+----+----+----+----+----+----+----+
8 |    |    |    |    |    |    |    |    | 8
  +----+----+----+----+----+----+----+----+
7 |    |    | oQ |    |    |    | oQ |    | 7
  +----+----+----+----+----+----+----+----+
6 |    | mP |    |    |    |    | oB |    | 6
  +----+----+----+----+----+----+----+----+
5 |    |    |    |    |    |    | mK |    | 5
  +----+----+----+----+----+----+----+----+
4 |    |    |    | oP |    |    |    |    | 4
  +----+----+----+----+----+----+----+----+
3 |    |    | oN |    |    |    |    | mP | 3
  +----+----+----+----+----+----+----+----+
2 | oP | oP | oP |    |    | oP |    | oP | 2
  +----+----+----+----+----+----+----+----+
1 | oR |    |    |    | oK |    |    | oR | 1
  +----+----+----+----+----+----+----+----+
    a    b    c    d    e    f    g   h

    a    b    c    d    e    f    g    h
  +----+----+----+----+----+----+----+----+
8 |    |    |    |    |    |    |    |    | 8
  +----+----+----+----+----+----+----+----+
7 |    |    | oQ |    |    |    | oQ |    | 7
  +----+----+----+----+----+----+----+----+
6 |    | mP |    |    |    |    | oB |    | 6
  +----+----+----+----+----+----+----+----+
5 |    |    |    |    |    |    | mK |    | 5
  +----+----+----+----+----+----+----+----+
4 |    |    |    | oP |    |    |    |    | 4
  +----+----+----+----+----+----+----+----+
3 |    |    | oN |    |    |    |    | mP | 3
  +----+----+----+----+----+----+----+----+
2 | oP | oP | oP |    |    | oP |    | oP | 2
  +----+----+----+----+----+----+----+----+
1 | oR |    |    |    | oK |    | oR |    | 1
  +----+----+----+----+----+----+----+----+
    a    b    c    d    e    f    g   h

    a    b    c    d    e    f    g    h
  +----+----+----+----+----+----+----+----+
8 |    |    |    |    |    |    |    |    | 8
  +----+----+----+----+----+----+----+----+
7 |    |    | oQ |    |    |    | oQ |    | 7
  +----+----+----+----+----+----+----+----+
6 |    | mP |    |    |    |    | oB |    | 6
  +----+----+----+----+----+----+----+----+
5 |    |    |    |    |    |    |    |    | 5
  +----+----+----+----+----+----+----+----+
4 |    |    |    | oP |    |    |    | mK | 4
  +----+----+----+----+----+----+----+----+
3 |    |    | oN |    |    |    |    | mP | 3
  +----+----+----+----+----+----+----+----+
2 | oP | oP | oP |    |    | oP |    | oP | 2
  +----+----+----+----+----+----+----+----+
1 | oR |    |    |    | oK |    | oR |    | 1
  +----+----+----+----+----+----+----+----+
    a    b    c    d    e    f    g   h

    a    b    c    d    e    f    g    h
  +----+----+----+----+----+----+----+----+
8 |    |    |    |    |    |    |    |    | 8
  +----+----+----+----+----+----+----+----+
7 |    |    | oQ |    |    |    | oQ |    | 7
  +----+----+----+----+----+----+----+----+
6 |    | mP |    |    |    |    | oB |    | 6
  +----+----+----+----+----+----+----+----+
5 |    |    |    |    |    |    |    |    | 5
  +----+----+----+----+----+----+----+----+
4 |    |    |    | oP |    |    | oR | mK | 4
  +----+----+----+----+----+----+----+----+
3 |    |    | oN |    |    |    |    | mP | 3
  +----+----+----+----+----+----+----+----+
2 | oP | oP | oP |    |    | oP |    | oP | 2
  +----+----+----+----+----+----+----+----+
1 | oR |    |    |    | oK |    |    |    | 1
  +----+----+----+----+----+----+----+----+
    a    b    c    d    e    f    g   h

    a    b    c    d    e    f    g    h
  +----+----+----+----+----+----+----+----+
8 |    |    |    |    |    |    |    |    | 8
  +----+----+----+----+----+----+----+----+
7 |    |    | oQ |    |    |    | oQ |    | 7
  +----+----+----+----+----+----+----+----+
6 |    | mP |    |    |    |    | oB |    | 6
  +----+----+----+----+----+----+----+----+
5 |    |    |    |    |    |    |    |    | 5
  +----+----+----+----+----+----+----+----+
4 |    |    |    | oP |    |    | mK |    | 4
  +----+----+----+----+----+----+----+----+
3 |    |    | oN |    |    |    |    | mP | 3
  +----+----+----+----+----+----+----+----+
2 | oP | oP | oP |    |    | oP |    | oP | 2
  +----+----+----+----+----+----+----+----+
1 | oR |    |    |    | oK |    |    |    | 1
  +----+----+----+----+----+----+----+----+
    a    b    c    d    e    f    g   h

    a    b    c    d    e    f    g    h
  +----+----+----+----+----+----+----+----+
8 |    |    |    |    |    |    |    |    | 8
  +----+----+----+----+----+----+----+----+
7 |    |    | oQ |    |    |    | oQ |    | 7
  +----+----+----+----+----+----+----+----+
6 |    | mP |    |    |    |    | oB |    | 6
  +----+----+----+----+----+----+----+----+
5 |    |    |    |    |    |    |    |    | 5
  +----+----+----+----+----+----+----+----+
4 |    |    |    | oP |    |    | mK |    | 4
  +----+----+----+----+----+----+----+----+
3 |    |    | oN |    |    | oP |    | mP | 3
  +----+----+----+----+----+----+----+----+
2 | oP | oP | oP |    |    |    |    | oP | 2
  +----+----+----+----+----+----+----+----+
1 | oR |    |    |    | oK |    |    |    | 1
  +----+----+----+----+----+----+----+----+
    a    b    c    d    e    f    g   h

    a    b    c    d    e    f    g    h
  +----+----+----+----+----+----+----+----+
8 |    |    |    |    |    |    |    |    | 8
  +----+----+----+----+----+----+----+----+
7 |    |    | oQ |    |    |    | oQ |    | 7
  +----+----+----+----+----+----+----+----+
6 |    | mP |    |    |    |    | oB |    | 6
  +----+----+----+----+----+----+----+----+
5 |    |    |    |    |    |    |    |    | 5
  +----+----+----+----+----+----+----+----+
4 |    |    |    | oP |    |    | mK |    | 4
  +----+----+----+----+----+----+----+----+
3 |    |    | oN |    |    | oP |    | mP | 3
  +----+----+----+----+----+----+----+----+
2 | oP | oP | oP |    |    |    |    | oP | 2
  +----+----+----+----+----+----+----+----+
1 | oR |    |    |    | oK |    |    |    | 1
  +----+----+----+----+----+----+----+----+
    a    b    c    d    e    f    g   h

random move: g4h4
Move written to championship/lizzie-iii-chess-ai/move.csv successfully!
eval: -4332
qrbkqrbkqrbkResult
Move: f3f2, Score: -3385
[32;1m[Game] [0mPlayer's error code: 0
[32;1m[Game] [0mChecking move validity...
[32;1m[Board] [0mInitializing board...
[32;1m[Board] [0mLoading history file `championship/lizzie-iii-chess-ai/history.csv`...
[32;1m[Board] [0mLoaded 63 move(s).
[32;1m[Board] [0mLoading move file `championship/lizzie-iii-chess-ai/move.csv`...
[32;1m[Board] [0mBlack player is playing g4 to h4.
[32;1m[Board] [0m
[32;1m[Board] [0m    a b c d e f g h 
[32;1m[Board] [0m  -------------------
[32;1m[Board] [0m8 ||[7;1m [0m| |[7;1m [0m| |[7;1m [0m| |[7;1m [0m| || 8
[32;1m[Board] [0m  -------------------
[32;1m[Board] [0m7 || |[7;1m [0m|[0;1mQ[0m|[7;1m [0m| |[7;1m [0m|[0;1mQ[0m|[7;1m [0m|| 7
[32;1m[Board] [0m  -------------------
[32;1m[Board] [0m6 ||[7;1m [0m|[30;1mp[0m|[7;1m [0m| |[7;1m [0m| |[0;1mb[0m| || 6
[32;1m[Board] [0m  -------------------
[32;1m[Board] [0m5 || |[7;1m [0m| |[7;1m [0m| |[7;1m [0m| |[7;1m [0m|| 5
[32;1m[Board] [0m  -------------------
[32;1m[Board] [0m4 ||[7;1m [0m| |[7;1m [0m|[0;1mp[0m|[7;1m [0m| |[7;1m [0m|[30;1mK[0m|| 4
[32;1m[Board] [0m  -------------------
[32;1m[Board] [0m3 || |[7;1m [0m|[0;1mk[0m|[7;1m [0m| |[0;1mp[0m| |[30;1mp[0m|| 3
[32;1m[Board] [0m  -------------------
[32;1m[Board] [0m2 ||[0;1mp[0m|[0;1mp[0m|[0;1mp[0m| |[7;1m [0m| |[7;1m [0m|[0;1mp[0m|| 2
[32;1m[Board] [0m  -------------------
[32;1m[Board] [0m1 ||[0;1mr[0m|[7;1m [0m| |[7;1m [0m|[0;1mK[0m|[7;1m [0m| |[7;1m [0m|| 1
[32;1m[Board] [0m  -------------------
[32;1m[Board] [0m    a b c d e f g h
[32;1m[Board] [0m
[32;1m[Referee] [0mThis is the turn of the White player...
Input file: championship/lizzie-iii-chess-ai/history.csv
Output file: championship/lizzie-iii-chess-ai/move.csv
We are playing as White
8 | [1;30m_[0m [1;30m_[0m [1;30m_[0m [1;30m_[0m [1;30m_[0m [1;30m_[0m [1;30m_[0m [1;30m_[0m 
7 | [1;30m_[0m [1;30m_[0m [1;32mQ[0m [1;30m_[0m [1;30m_[0m [1;30m_[0m [1;32mQ[0m [1;30m_[0m 
6 | [1;30m_[0m [1;31mP[0m [1;30m_[0m [1;30m_[0m [1;30m_[0m [1;30m_[0m [1;32mB[0m [1;30m_[0m 
5 | [1;30m_[0m [1;30m_[0m [1;30m_[0m [1;30m_[0m [1;30m_[0m [1;30m_[0m [1;30m_[0m [1;30m_[0m 
4 | [1;30m_[0m [1;30m_[0m [1;30m_[0m [1;32mP[0m [1;30m_[0m [1;30m_[0m [1;30m_[0m [1;31mK[0m 
3 | [1;30m_[0m [1;30m_[0m [1;32mN[0m [1;30m_[0m [1;30m_[0m [1;32mP[0m [1;30m_[0m [1;31mP[0m 
2 | [1;32mP[0m [1;32mP[0m [1;32mP[0m [1;30m_[0m [1;30m_[0m [1;30m_[0m [1;30m_[0m [1;32mP[0m 
1 | [1;32mR[0m [1;30m_[0m [1;30m_[0m [1;30m_[0m [1;32mK[0m [1;30m_[0m [1;30m_[0m [1;30m_[0m 
-------------------
  | A B C D E F G H 

It is white's turn to play.
Best move: c7d8
Evaluation: 100000
Node count: 143636

Total time: 2146.33 ms
[32;1m[Game] [0mPlayer's error code: 0
[32;1m[Game] [0mChecking move validity...
[32;1m[Board] [0mInitializing board...
[32;1m[Board] [0mLoading history file `championship/lizzie-iii-chess-ai/history.csv`...
[32;1m[Board] [0mLoaded 64 move(s).
[32;1m[Board] [0mLoading move file `championship/lizzie-iii-chess-ai/move.csv`...
[32;1m[Board] [0mWhite player is playing c7 to d8.
[32;1m[Board] [0m
[32;1m[Board] [0m    a b c d e f g h 
[32;1m[Board] [0m  -------------------
[32;1m[Board] [0m8 ||[7;1m [0m| |[7;1m [0m|[0;1mQ[0m|[7;1m [0m| |[7;1m [0m| || 8
[32;1m[Board] [0m  -------------------
[32;1m[Board] [0m7 || |[7;1m [0m| |[7;1m [0m| |[7;1m [0m|[0;1mQ[0m|[7;1m [0m|| 7
[32;1m[Board] [0m  -------------------
[32;1m[Board] [0m6 ||[7;1m [0m|[30;1mp[0m|[7;1m [0m| |[7;1m [0m| |[0;1mb[0m| || 6
[32;1m[Board] [0m  -------------------
[32;1m[Board] [0m5 || |[7;1m [0m| |[7;1m [0m| |[7;1m [0m| |[7;1m [0m|| 5
[32;1m[Board] [0m  -------------------
[32;1m[Board] [0m4 ||[7;1m [0m| |[7;1m [0m|[0;1mp[0m|[7;1m [0m| |[7;1m [0m|[30;1mK[0m|| 4
[32;1m[Board] [0m  -------------------
[32;1m[Board] [0m3 || |[7;1m [0m|[0;1mk[0m|[7;1m [0m| |[0;1mp[0m| |[30;1mp[0m|| 3
[32;1m[Board] [0m  -------------------
[32;1m[Board] [0m2 ||[0;1mp[0m|[0;1mp[0m|[0;1mp[0m| |[7;1m [0m| |[7;1m [0m|[0;1mp[0m|| 2
[32;1m[Board] [0m  -------------------
[32;1m[Board] [0m1 ||[0;1mr[0m|[7;1m [0m| |[7;1m [0m|[0;1mK[0m|[7;1m [0m| |[7;1m [0m|| 1
[32;1m[Board] [0m  -------------------
[32;1m[Board] [0m    a b c d e f g h
[32;1m[Board] [0m
[32;1m[Referee] [0mThis is the turn of the Black player...
[32;1m[Board] [0m[33;1m[WARNING][0m [5;1mBlack King in checkmate![0m
[32;1m[Board] [0m[33;1m[WARNING][0m The White player wins!
