[32;1m[Board] [0mInitializing board...
[32;1m[Board] [0m
[32;1m[Board] [0m    a b c d e f g h 
[32;1m[Board] [0m  -------------------
[32;1m[Board] [0m8 ||[30;1mr[0m|[30;1mk[0m|[30;1mb[0m|[30;1mQ[0m|[30;1mK[0m|[30;1mb[0m|[30;1mk[0m|[30;1mr[0m|| 8
[32;1m[Board] [0m  -------------------
[32;1m[Board] [0m7 ||[30;1mp[0m|[30;1mp[0m|[30;1mp[0m|[30;1mp[0m|[30;1mp[0m|[30;1mp[0m|[30;1mp[0m|[30;1mp[0m|| 7
[32;1m[Board] [0m  -------------------
[32;1m[Board] [0m6 ||[7;1m [0m| |[7;1m [0m| |[7;1m [0m| |[7;1m [0m| || 6
[32;1m[Board] [0m  -------------------
[32;1m[Board] [0m5 || |[7;1m [0m| |[7;1m [0m| |[7;1m [0m| |[7;1m [0m|| 5
[32;1m[Board] [0m  -------------------
[32;1m[Board] [0m4 ||[7;1m [0m| |[7;1m [0m| |[7;1m [0m| |[7;1m [0m| || 4
[32;1m[Board] [0m  -------------------
[32;1m[Board] [0m3 || |[7;1m [0m| |[7;1m [0m| |[7;1m [0m| |[7;1m [0m|| 3
[32;1m[Board] [0m  -------------------
[32;1m[Board] [0m2 ||[0;1mp[0m|[0;1mp[0m|[0;1mp[0m|[0;1mp[0m|[0;1mp[0m|[0;1mp[0m|[0;1mp[0m|[0;1mp[0m|| 2
[32;1m[Board] [0m  -------------------
[32;1m[Board] [0m1 ||[0;1mr[0m|[0;1mk[0m|[0;1mb[0m|[0;1mQ[0m|[0;1mK[0m|[0;1mb[0m|[0;1mk[0m|[0;1mr[0m|| 1
[32;1m[Board] [0m  -------------------
[32;1m[Board] [0m    a b c d e f g h
[32;1m[Board] [0m
[32;1m[Referee] [0mThis is the turn of the White player...
Input file: championship/lizzie-iii-check-innit-mate/history.csv
Output file: championship/lizzie-iii-check-innit-mate/move.csv
We are playing as White
Move history:
8 | R N B Q K B N R 
7 | P P P P P P P P 
6 | _ _ _ _ _ _ _ _ 
5 | _ _ _ _ _ _ _ _ 
4 | _ _ _ _ _ _ _ _ 
3 | _ _ _ _ _ _ _ _ 
2 | P P P P P P P P 
1 | R N B Q K B N R 
-------------------
  | A B C D E F G H 

It is white's turn to play.
AI's move: b2b4
Move written: b2b4
[32;1m[Game] [0mPlayer's error code: 0
[32;1m[Game] [0mChecking move validity...
[32;1m[Board] [0mInitializing board...
[32;1m[Board] [0mLoading history file `championship/lizzie-iii-check-innit-mate/history.csv`...
[32;1m[Board] [0mLoaded 0 move(s).
[32;1m[Board] [0mLoading move file `championship/lizzie-iii-check-innit-mate/move.csv`...
[32;1m[Board] [0mWhite player is playing b2 to b4.
[32;1m[Board] [0m
[32;1m[Board] [0m    a b c d e f g h 
[32;1m[Board] [0m  -------------------
[32;1m[Board] [0m8 ||[30;1mr[0m|[30;1mk[0m|[30;1mb[0m|[30;1mQ[0m|[30;1mK[0m|[30;1mb[0m|[30;1mk[0m|[30;1mr[0m|| 8
[32;1m[Board] [0m  -------------------
[32;1m[Board] [0m7 ||[30;1mp[0m|[30;1mp[0m|[30;1mp[0m|[30;1mp[0m|[30;1mp[0m|[30;1mp[0m|[30;1mp[0m|[30;1mp[0m|| 7
[32;1m[Board] [0m  -------------------
[32;1m[Board] [0m6 ||[7;1m [0m| |[7;1m [0m| |[7;1m [0m| |[7;1m [0m| || 6
[32;1m[Board] [0m  -------------------
[32;1m[Board] [0m5 || |[7;1m [0m| |[7;1m [0m| |[7;1m [0m| |[7;1m [0m|| 5
[32;1m[Board] [0m  -------------------
[32;1m[Board] [0m4 ||[7;1m [0m|[0;1mp[0m|[7;1m [0m| |[7;1m [0m| |[7;1m [0m| || 4
[32;1m[Board] [0m  -------------------
[32;1m[Board] [0m3 || |[7;1m [0m| |[7;1m [0m| |[7;1m [0m| |[7;1m [0m|| 3
[32;1m[Board] [0m  -------------------
[32;1m[Board] [0m2 ||[0;1mp[0m| |[0;1mp[0m|[0;1mp[0m|[0;1mp[0m|[0;1mp[0m|[0;1mp[0m|[0;1mp[0m|| 2
[32;1m[Board] [0m  -------------------
[32;1m[Board] [0m1 ||[0;1mr[0m|[0;1mk[0m|[0;1mb[0m|[0;1mQ[0m|[0;1mK[0m|[0;1mb[0m|[0;1mk[0m|[0;1mr[0m|| 1
[32;1m[Board] [0m  -------------------
[32;1m[Board] [0m    a b c d e f g h
[32;1m[Board] [0m
[32;1m[Referee] [0mThis is the turn of the Black player...
0 0 0 0 0 0 0 0 
0 0 0 0 0 0 0 0 
- - - - - - - - 
- - - - - - - - 
- 1 - - - - - - 
- - - - - - - - 
1 - 1 1 1 1 1 1 
1 1 1 1 1 1 1 1 
--------
looking for king 0, 0Rook
0
looking for king 0, 1Knight
0
looking for king 0, 2Bishop
0
looking for king 0, 3Queen
0
looking for king 0, 4King
1
looking for king 0, 5Bishop
0
looking for king 0, 6Knight
0
looking for king 0, 7Rook
0
looking for king 1, 0Pawn
0
looking for king 1, 2Pawn
0
looking for king 1, 3Pawn
0
looking for king 1, 4Pawn
0
looking for king 1, 5Pawn
0
looking for king 1, 6Pawn
0
looking for king 1, 7Pawn
0
looking for king 3, 1Pawn
0
looking for king 6, 0Pawn
0
looking for king 6, 1Pawn
0
looking for king 6, 2Pawn
0
looking for king 6, 3Pawn
0
looking for king 6, 4Pawn
0
looking for king 6, 5Pawn
0
looking for king 6, 6Pawn
0
looking for king 6, 7Pawn
0
looking for king 7, 0Rook
0
looking for king 7, 1Knight
0
looking for king 7, 2Bishop
0
looking for king 7, 3Queen
0
looking for king 7, 4King
1
From (6, 0) to (5, 0)
From (6, 0) to (4, 0)
From (6, 1) to (5, 1)
From (6, 1) to (4, 1)
From (6, 2) to (5, 2)
From (6, 2) to (4, 2)
From (6, 3) to (5, 3)
From (6, 3) to (4, 3)
From (6, 4) to (5, 4)
From (6, 4) to (4, 4)
From (6, 5) to (5, 5)
From (6, 5) to (4, 5)
From (6, 6) to (5, 6)
From (6, 6) to (4, 6)
From (6, 7) to (5, 7)
From (6, 7) to (4, 7)
From (7, 1) to (5, 2)
From (7, 1) to (5, 0)
From (7, 6) to (5, 7)
From (7, 6) to (5, 5)
[32;1m[Game] [0mPlayer's error code: 0
[32;1m[Game] [0mChecking move validity...
[32;1m[Board] [0mInitializing board...
[32;1m[Board] [0mLoading history file `championship/lizzie-iii-check-innit-mate/history.csv`...
[32;1m[Board] [0mLoaded 1 move(s).
[32;1m[Board] [0mLoading move file `championship/lizzie-iii-check-innit-mate/move.csv`...
[32;1m[Board] [0mBlack player is playing g7 to g5.
[32;1m[Board] [0m
[32;1m[Board] [0m    a b c d e f g h 
[32;1m[Board] [0m  -------------------
[32;1m[Board] [0m8 ||[30;1mr[0m|[30;1mk[0m|[30;1mb[0m|[30;1mQ[0m|[30;1mK[0m|[30;1mb[0m|[30;1mk[0m|[30;1mr[0m|| 8
[32;1m[Board] [0m  -------------------
[32;1m[Board] [0m7 ||[30;1mp[0m|[30;1mp[0m|[30;1mp[0m|[30;1mp[0m|[30;1mp[0m|[30;1mp[0m| |[30;1mp[0m|| 7
[32;1m[Board] [0m  -------------------
[32;1m[Board] [0m6 ||[7;1m [0m| |[7;1m [0m| |[7;1m [0m| |[7;1m [0m| || 6
[32;1m[Board] [0m  -------------------
[32;1m[Board] [0m5 || |[7;1m [0m| |[7;1m [0m| |[7;1m [0m|[30;1mp[0m|[7;1m [0m|| 5
[32;1m[Board] [0m  -------------------
[32;1m[Board] [0m4 ||[7;1m [0m|[0;1mp[0m|[7;1m [0m| |[7;1m [0m| |[7;1m [0m| || 4
[32;1m[Board] [0m  -------------------
[32;1m[Board] [0m3 || |[7;1m [0m| |[7;1m [0m| |[7;1m [0m| |[7;1m [0m|| 3
[32;1m[Board] [0m  -------------------
[32;1m[Board] [0m2 ||[0;1mp[0m| |[0;1mp[0m|[0;1mp[0m|[0;1mp[0m|[0;1mp[0m|[0;1mp[0m|[0;1mp[0m|| 2
[32;1m[Board] [0m  -------------------
[32;1m[Board] [0m1 ||[0;1mr[0m|[0;1mk[0m|[0;1mb[0m|[0;1mQ[0m|[0;1mK[0m|[0;1mb[0m|[0;1mk[0m|[0;1mr[0m|| 1
[32;1m[Board] [0m  -------------------
[32;1m[Board] [0m    a b c d e f g h
[32;1m[Board] [0m
[32;1m[Referee] [0mThis is the turn of the White player...
Input file: championship/lizzie-iii-check-innit-mate/history.csv
Output file: championship/lizzie-iii-check-innit-mate/move.csv
Turn of: white
Succesful move
b2b4
8 | R N B Q K B N R 
7 | P P P P P P P P 
6 | _ _ _ _ _ _ _ _ 
5 | _ _ _ _ _ _ _ _ 
4 | _ P _ _ _ _ _ _ 
3 | _ _ _ _ _ _ _ _ 
2 | P _ P P P P P P 
1 | R N B Q K B N R 
-------------------
  | A B C D E F G H 

Turn of: black
Succesful move
g7g5
8 | R N B Q K B N R 
7 | P P P P P P _ P 
6 | _ _ _ _ _ _ _ _ 
5 | _ _ _ _ _ _ P _ 
4 | _ P _ _ _ _ _ _ 
3 | _ _ _ _ _ _ _ _ 
2 | P _ P P P P P P 
1 | R N B Q K B N R 
-------------------
  | A B C D E F G H 

We are playing as White
Move history:
b2b4
g7g5
8 | R N B Q K B N R 
7 | P P P P P P _ P 
6 | _ _ _ _ _ _ _ _ 
5 | _ _ _ _ _ _ P _ 
4 | _ P _ _ _ _ _ _ 
3 | _ _ _ _ _ _ _ _ 
2 | P _ P P P P P P 
1 | R N B Q K B N R 
-------------------
  | A B C D E F G H 

It is white's turn to play.
AI's move: f2f4
Move written: f2f4
[32;1m[Game] [0mPlayer's error code: 0
[32;1m[Game] [0mChecking move validity...
[32;1m[Board] [0mInitializing board...
[32;1m[Board] [0mLoading history file `championship/lizzie-iii-check-innit-mate/history.csv`...
[32;1m[Board] [0mLoaded 2 move(s).
[32;1m[Board] [0mLoading move file `championship/lizzie-iii-check-innit-mate/move.csv`...
[32;1m[Board] [0mWhite player is playing f2 to f4.
[32;1m[Board] [0m
[32;1m[Board] [0m    a b c d e f g h 
[32;1m[Board] [0m  -------------------
[32;1m[Board] [0m8 ||[30;1mr[0m|[30;1mk[0m|[30;1mb[0m|[30;1mQ[0m|[30;1mK[0m|[30;1mb[0m|[30;1mk[0m|[30;1mr[0m|| 8
[32;1m[Board] [0m  -------------------
[32;1m[Board] [0m7 ||[30;1mp[0m|[30;1mp[0m|[30;1mp[0m|[30;1mp[0m|[30;1mp[0m|[30;1mp[0m| |[30;1mp[0m|| 7
[32;1m[Board] [0m  -------------------
[32;1m[Board] [0m6 ||[7;1m [0m| |[7;1m [0m| |[7;1m [0m| |[7;1m [0m| || 6
[32;1m[Board] [0m  -------------------
[32;1m[Board] [0m5 || |[7;1m [0m| |[7;1m [0m| |[7;1m [0m|[30;1mp[0m|[7;1m [0m|| 5
[32;1m[Board] [0m  -------------------
[32;1m[Board] [0m4 ||[7;1m [0m|[0;1mp[0m|[7;1m [0m| |[7;1m [0m|[0;1mp[0m|[7;1m [0m| || 4
[32;1m[Board] [0m  -------------------
[32;1m[Board] [0m3 || |[7;1m [0m| |[7;1m [0m| |[7;1m [0m| |[7;1m [0m|| 3
[32;1m[Board] [0m  -------------------
[32;1m[Board] [0m2 ||[0;1mp[0m| |[0;1mp[0m|[0;1mp[0m|[0;1mp[0m| |[0;1mp[0m|[0;1mp[0m|| 2
[32;1m[Board] [0m  -------------------
[32;1m[Board] [0m1 ||[0;1mr[0m|[0;1mk[0m|[0;1mb[0m|[0;1mQ[0m|[0;1mK[0m|[0;1mb[0m|[0;1mk[0m|[0;1mr[0m|| 1
[32;1m[Board] [0m  -------------------
[32;1m[Board] [0m    a b c d e f g h
[32;1m[Board] [0m
[32;1m[Referee] [0mThis is the turn of the Black player...
0 0 0 0 0 0 0 0 
0 0 0 0 0 0 - 0 
- - - - - - - - 
- - - - - - 0 - 
- 1 - - - 1 - - 
- - - - - - - - 
1 - 1 1 1 - 1 1 
1 1 1 1 1 1 1 1 
--------
looking for king 0, 0Rook
0
looking for king 0, 1Knight
0
looking for king 0, 2Bishop
0
looking for king 0, 3Queen
0
looking for king 0, 4King
1
looking for king 0, 5Bishop
0
looking for king 0, 6Knight
0
looking for king 0, 7Rook
0
looking for king 1, 0Pawn
0
looking for king 1, 2Pawn
0
looking for king 1, 3Pawn
0
looking for king 1, 4Pawn
0
looking for king 1, 6Pawn
0
looking for king 1, 7Pawn
0
looking for king 3, 1Pawn
0
looking for king 3, 5Pawn
0
looking for king 4, 6Pawn
0
looking for king 6, 0Pawn
0
looking for king 6, 1Pawn
0
looking for king 6, 2Pawn
0
looking for king 6, 3Pawn
0
looking for king 6, 4Pawn
0
looking for king 6, 5Pawn
0
looking for king 6, 7Pawn
0
looking for king 7, 0Rook
0
looking for king 7, 1Knight
0
looking for king 7, 2Bishop
0
looking for king 7, 3Queen
0
looking for king 7, 4King
1
From (4, 6) to (3, 6)
From (4, 6) to (3, 5)
From (6, 0) to (5, 0)
From (6, 0) to (4, 0)
From (6, 1) to (5, 1)
From (6, 1) to (4, 1)
From (6, 2) to (5, 2)
From (6, 2) to (4, 2)
From (6, 3) to (5, 3)
From (6, 3) to (4, 3)
From (6, 4) to (5, 4)
From (6, 4) to (4, 4)
From (6, 5) to (5, 5)
From (6, 5) to (4, 5)
From (6, 7) to (5, 7)
From (6, 7) to (4, 7)
From (7, 1) to (5, 2)
From (7, 1) to (5, 0)
From (7, 5) to (6, 6)
From (7, 5) to (5, 7)
From (7, 6) to (5, 7)
From (7, 6) to (5, 5)
[32;1m[Game] [0mPlayer's error code: 0
[32;1m[Game] [0mChecking move validity...
[32;1m[Board] [0mInitializing board...
[32;1m[Board] [0mLoading history file `championship/lizzie-iii-check-innit-mate/history.csv`...
[32;1m[Board] [0mLoaded 3 move(s).
[32;1m[Board] [0mLoading move file `championship/lizzie-iii-check-innit-mate/move.csv`...
[32;1m[Board] [0mBlack player is playing b7 to b6.
[32;1m[Board] [0m
[32;1m[Board] [0m    a b c d e f g h 
[32;1m[Board] [0m  -------------------
[32;1m[Board] [0m8 ||[30;1mr[0m|[30;1mk[0m|[30;1mb[0m|[30;1mQ[0m|[30;1mK[0m|[30;1mb[0m|[30;1mk[0m|[30;1mr[0m|| 8
[32;1m[Board] [0m  -------------------
[32;1m[Board] [0m7 ||[30;1mp[0m|[7;1m [0m|[30;1mp[0m|[30;1mp[0m|[30;1mp[0m|[30;1mp[0m| |[30;1mp[0m|| 7
[32;1m[Board] [0m  -------------------
[32;1m[Board] [0m6 ||[7;1m [0m|[30;1mp[0m|[7;1m [0m| |[7;1m [0m| |[7;1m [0m| || 6
[32;1m[Board] [0m  -------------------
[32;1m[Board] [0m5 || |[7;1m [0m| |[7;1m [0m| |[7;1m [0m|[30;1mp[0m|[7;1m [0m|| 5
[32;1m[Board] [0m  -------------------
[32;1m[Board] [0m4 ||[7;1m [0m|[0;1mp[0m|[7;1m [0m| |[7;1m [0m|[0;1mp[0m|[7;1m [0m| || 4
[32;1m[Board] [0m  -------------------
[32;1m[Board] [0m3 || |[7;1m [0m| |[7;1m [0m| |[7;1m [0m| |[7;1m [0m|| 3
[32;1m[Board] [0m  -------------------
[32;1m[Board] [0m2 ||[0;1mp[0m| |[0;1mp[0m|[0;1mp[0m|[0;1mp[0m| |[0;1mp[0m|[0;1mp[0m|| 2
[32;1m[Board] [0m  -------------------
[32;1m[Board] [0m1 ||[0;1mr[0m|[0;1mk[0m|[0;1mb[0m|[0;1mQ[0m|[0;1mK[0m|[0;1mb[0m|[0;1mk[0m|[0;1mr[0m|| 1
[32;1m[Board] [0m  -------------------
[32;1m[Board] [0m    a b c d e f g h
[32;1m[Board] [0m
[32;1m[Referee] [0mThis is the turn of the White player...
Input file: championship/lizzie-iii-check-innit-mate/history.csv
Output file: championship/lizzie-iii-check-innit-mate/move.csv
Turn of: white
Succesful move
b2b4
8 | R N B Q K B N R 
7 | P P P P P P P P 
6 | _ _ _ _ _ _ _ _ 
5 | _ _ _ _ _ _ _ _ 
4 | _ P _ _ _ _ _ _ 
3 | _ _ _ _ _ _ _ _ 
2 | P _ P P P P P P 
1 | R N B Q K B N R 
-------------------
  | A B C D E F G H 

Turn of: black
Succesful move
g7g5
8 | R N B Q K B N R 
7 | P P P P P P _ P 
6 | _ _ _ _ _ _ _ _ 
5 | _ _ _ _ _ _ P _ 
4 | _ P _ _ _ _ _ _ 
3 | _ _ _ _ _ _ _ _ 
2 | P _ P P P P P P 
1 | R N B Q K B N R 
-------------------
  | A B C D E F G H 

Turn of: white
Succesful move
f2f4
8 | R N B Q K B N R 
7 | P P P P P P _ P 
6 | _ _ _ _ _ _ _ _ 
5 | _ _ _ _ _ _ P _ 
4 | _ P _ _ _ P _ _ 
3 | _ _ _ _ _ _ _ _ 
2 | P _ P P P _ P P 
1 | R N B Q K B N R 
-------------------
  | A B C D E F G H 

Turn of: black
Succesful move
b7b6
8 | R N B Q K B N R 
7 | P _ P P P P _ P 
6 | _ P _ _ _ _ _ _ 
5 | _ _ _ _ _ _ P _ 
4 | _ P _ _ _ P _ _ 
3 | _ _ _ _ _ _ _ _ 
2 | P _ P P P _ P P 
1 | R N B Q K B N R 
-------------------
  | A B C D E F G H 

We are playing as White
Move history:
b2b4
g7g5
f2f4
b7b6
8 | R N B Q K B N R 
7 | P _ P P P P _ P 
6 | _ P _ _ _ _ _ _ 
5 | _ _ _ _ _ _ P _ 
4 | _ P _ _ _ P _ _ 
3 | _ _ _ _ _ _ _ _ 
2 | P _ P P P _ P P 
1 | R N B Q K B N R 
-------------------
  | A B C D E F G H 

It is white's turn to play.
AI's move: a2a3
Move written: a2a3
[32;1m[Game] [0mPlayer's error code: 0
[32;1m[Game] [0mChecking move validity...
[32;1m[Board] [0mInitializing board...
[32;1m[Board] [0mLoading history file `championship/lizzie-iii-check-innit-mate/history.csv`...
[32;1m[Board] [0mLoaded 4 move(s).
[32;1m[Board] [0mLoading move file `championship/lizzie-iii-check-innit-mate/move.csv`...
[32;1m[Board] [0mWhite player is playing a2 to a3.
[32;1m[Board] [0m
[32;1m[Board] [0m    a b c d e f g h 
[32;1m[Board] [0m  -------------------
[32;1m[Board] [0m8 ||[30;1mr[0m|[30;1mk[0m|[30;1mb[0m|[30;1mQ[0m|[30;1mK[0m|[30;1mb[0m|[30;1mk[0m|[30;1mr[0m|| 8
[32;1m[Board] [0m  -------------------
[32;1m[Board] [0m7 ||[30;1mp[0m|[7;1m [0m|[30;1mp[0m|[30;1mp[0m|[30;1mp[0m|[30;1mp[0m| |[30;1mp[0m|| 7
[32;1m[Board] [0m  -------------------
[32;1m[Board] [0m6 ||[7;1m [0m|[30;1mp[0m|[7;1m [0m| |[7;1m [0m| |[7;1m [0m| || 6
[32;1m[Board] [0m  -------------------
[32;1m[Board] [0m5 || |[7;1m [0m| |[7;1m [0m| |[7;1m [0m|[30;1mp[0m|[7;1m [0m|| 5
[32;1m[Board] [0m  -------------------
[32;1m[Board] [0m4 ||[7;1m [0m|[0;1mp[0m|[7;1m [0m| |[7;1m [0m|[0;1mp[0m|[7;1m [0m| || 4
[32;1m[Board] [0m  -------------------
[32;1m[Board] [0m3 ||[0;1mp[0m|[7;1m [0m| |[7;1m [0m| |[7;1m [0m| |[7;1m [0m|| 3
[32;1m[Board] [0m  -------------------
[32;1m[Board] [0m2 ||[7;1m [0m| |[0;1mp[0m|[0;1mp[0m|[0;1mp[0m| |[0;1mp[0m|[0;1mp[0m|| 2
[32;1m[Board] [0m  -------------------
[32;1m[Board] [0m1 ||[0;1mr[0m|[0;1mk[0m|[0;1mb[0m|[0;1mQ[0m|[0;1mK[0m|[0;1mb[0m|[0;1mk[0m|[0;1mr[0m|| 1
[32;1m[Board] [0m  -------------------
[32;1m[Board] [0m    a b c d e f g h
[32;1m[Board] [0m
[32;1m[Referee] [0mThis is the turn of the Black player...
0 0 0 0 0 0 0 0 
0 - 0 0 0 0 - 0 
- 0 - - - - - - 
- - - - - - 0 - 
- 1 - - - 1 - - 
1 - - - - - - - 
- - 1 1 1 - 1 1 
1 1 1 1 1 1 1 1 
--------
looking for king 0, 0Rook
0
looking for king 0, 1Knight
0
looking for king 0, 2Bishop
0
looking for king 0, 3Queen
0
looking for king 0, 4King
1
looking for king 0, 5Bishop
0
looking for king 0, 6Knight
0
looking for king 0, 7Rook
0
looking for king 1, 2Pawn
0
looking for king 1, 3Pawn
0
looking for king 1, 4Pawn
0
looking for king 1, 6Pawn
0
looking for king 1, 7Pawn
0
looking for king 2, 0Pawn
0
looking for king 3, 1Pawn
0
looking for king 3, 5Pawn
0
looking for king 4, 6Pawn
0
looking for king 5, 1Pawn
0
looking for king 6, 0Pawn
0
looking for king 6, 2Pawn
0
looking for king 6, 3Pawn
0
looking for king 6, 4Pawn
0
looking for king 6, 5Pawn
0
looking for king 6, 7Pawn
0
looking for king 7, 0Rook
0
looking for king 7, 1Knight
0
looking for king 7, 2Bishop
0
looking for king 7, 3Queen
0
looking for king 7, 4King
1
From (4, 6) to (3, 6)
From (4, 6) to (3, 5)
From (5, 1) to (4, 1)
From (6, 0) to (5, 0)
From (6, 0) to (4, 0)
From (6, 2) to (5, 2)
From (6, 2) to (4, 2)
From (6, 3) to (5, 3)
From (6, 3) to (4, 3)
From (6, 4) to (5, 4)
From (6, 4) to (4, 4)
From (6, 5) to (5, 5)
From (6, 5) to (4, 5)
From (6, 7) to (5, 7)
From (6, 7) to (4, 7)
From (7, 1) to (5, 2)
From (7, 1) to (5, 0)
From (7, 2) to (6, 1)
From (7, 2) to (5, 0)
From (7, 5) to (6, 6)
From (7, 5) to (5, 7)
From (7, 6) to (5, 7)
From (7, 6) to (5, 5)
[32;1m[Game] [0mPlayer's error code: 0
[32;1m[Game] [0mChecking move validity...
[32;1m[Board] [0mInitializing board...
[32;1m[Board] [0mLoading history file `championship/lizzie-iii-check-innit-mate/history.csv`...
[32;1m[Board] [0mLoaded 5 move(s).
[32;1m[Board] [0mLoading move file `championship/lizzie-iii-check-innit-mate/move.csv`...
[32;1m[Board] [0mBlack player is playing c8 to a6.
[32;1m[Board] [0m
[32;1m[Board] [0m    a b c d e f g h 
[32;1m[Board] [0m  -------------------
[32;1m[Board] [0m8 ||[30;1mr[0m|[30;1mk[0m|[7;1m [0m|[30;1mQ[0m|[30;1mK[0m|[30;1mb[0m|[30;1mk[0m|[30;1mr[0m|| 8
[32;1m[Board] [0m  -------------------
[32;1m[Board] [0m7 ||[30;1mp[0m|[7;1m [0m|[30;1mp[0m|[30;1mp[0m|[30;1mp[0m|[30;1mp[0m| |[30;1mp[0m|| 7
[32;1m[Board] [0m  -------------------
[32;1m[Board] [0m6 ||[30;1mb[0m|[30;1mp[0m|[7;1m [0m| |[7;1m [0m| |[7;1m [0m| || 6
[32;1m[Board] [0m  -------------------
[32;1m[Board] [0m5 || |[7;1m [0m| |[7;1m [0m| |[7;1m [0m|[30;1mp[0m|[7;1m [0m|| 5
[32;1m[Board] [0m  -------------------
[32;1m[Board] [0m4 ||[7;1m [0m|[0;1mp[0m|[7;1m [0m| |[7;1m [0m|[0;1mp[0m|[7;1m [0m| || 4
[32;1m[Board] [0m  -------------------
[32;1m[Board] [0m3 ||[0;1mp[0m|[7;1m [0m| |[7;1m [0m| |[7;1m [0m| |[7;1m [0m|| 3
[32;1m[Board] [0m  -------------------
[32;1m[Board] [0m2 ||[7;1m [0m| |[0;1mp[0m|[0;1mp[0m|[0;1mp[0m| |[0;1mp[0m|[0;1mp[0m|| 2
[32;1m[Board] [0m  -------------------
[32;1m[Board] [0m1 ||[0;1mr[0m|[0;1mk[0m|[0;1mb[0m|[0;1mQ[0m|[0;1mK[0m|[0;1mb[0m|[0;1mk[0m|[0;1mr[0m|| 1
[32;1m[Board] [0m  -------------------
[32;1m[Board] [0m    a b c d e f g h
[32;1m[Board] [0m
[32;1m[Referee] [0mThis is the turn of the White player...
Input file: championship/lizzie-iii-check-innit-mate/history.csv
Output file: championship/lizzie-iii-check-innit-mate/move.csv
Turn of: white
Succesful move
b2b4
8 | R N B Q K B N R 
7 | P P P P P P P P 
6 | _ _ _ _ _ _ _ _ 
5 | _ _ _ _ _ _ _ _ 
4 | _ P _ _ _ _ _ _ 
3 | _ _ _ _ _ _ _ _ 
2 | P _ P P P P P P 
1 | R N B Q K B N R 
-------------------
  | A B C D E F G H 

Turn of: black
Succesful move
g7g5
8 | R N B Q K B N R 
7 | P P P P P P _ P 
6 | _ _ _ _ _ _ _ _ 
5 | _ _ _ _ _ _ P _ 
4 | _ P _ _ _ _ _ _ 
3 | _ _ _ _ _ _ _ _ 
2 | P _ P P P P P P 
1 | R N B Q K B N R 
-------------------
  | A B C D E F G H 

Turn of: white
Succesful move
f2f4
8 | R N B Q K B N R 
7 | P P P P P P _ P 
6 | _ _ _ _ _ _ _ _ 
5 | _ _ _ _ _ _ P _ 
4 | _ P _ _ _ P _ _ 
3 | _ _ _ _ _ _ _ _ 
2 | P _ P P P _ P P 
1 | R N B Q K B N R 
-------------------
  | A B C D E F G H 

Turn of: black
Succesful move
b7b6
8 | R N B Q K B N R 
7 | P _ P P P P _ P 
6 | _ P _ _ _ _ _ _ 
5 | _ _ _ _ _ _ P _ 
4 | _ P _ _ _ P _ _ 
3 | _ _ _ _ _ _ _ _ 
2 | P _ P P P _ P P 
1 | R N B Q K B N R 
-------------------
  | A B C D E F G H 

Turn of: white
Succesful move
a2a3
8 | R N B Q K B N R 
7 | P _ P P P P _ P 
6 | _ P _ _ _ _ _ _ 
5 | _ _ _ _ _ _ P _ 
4 | _ P _ _ _ P _ _ 
3 | P _ _ _ _ _ _ _ 
2 | _ _ P P P _ P P 
1 | R N B Q K B N R 
-------------------
  | A B C D E F G H 

Turn of: black
Succesful move
c8a6
8 | R N _ Q K B N R 
7 | P _ P P P P _ P 
6 | B P _ _ _ _ _ _ 
5 | _ _ _ _ _ _ P _ 
4 | _ P _ _ _ P _ _ 
3 | P _ _ _ _ _ _ _ 
2 | _ _ P P P _ P P 
1 | R N B Q K B N R 
-------------------
  | A B C D E F G H 

We are playing as White
Move history:
b2b4
g7g5
f2f4
b7b6
a2a3
c8a6
8 | R N _ Q K B N R 
7 | P _ P P P P _ P 
6 | B P _ _ _ _ _ _ 
5 | _ _ _ _ _ _ P _ 
4 | _ P _ _ _ P _ _ 
3 | P _ _ _ _ _ _ _ 
2 | _ _ P P P _ P P 
1 | R N B Q K B N R 
-------------------
  | A B C D E F G H 

It is white's turn to play.
AI's move: h2h3
Move written: h2h3
[32;1m[Game] [0mPlayer's error code: 0
[32;1m[Game] [0mChecking move validity...
[32;1m[Board] [0mInitializing board...
[32;1m[Board] [0mLoading history file `championship/lizzie-iii-check-innit-mate/history.csv`...
[32;1m[Board] [0mLoaded 6 move(s).
[32;1m[Board] [0mLoading move file `championship/lizzie-iii-check-innit-mate/move.csv`...
[32;1m[Board] [0mWhite player is playing h2 to h3.
[32;1m[Board] [0m
[32;1m[Board] [0m    a b c d e f g h 
[32;1m[Board] [0m  -------------------
[32;1m[Board] [0m8 ||[30;1mr[0m|[30;1mk[0m|[7;1m [0m|[30;1mQ[0m|[30;1mK[0m|[30;1mb[0m|[30;1mk[0m|[30;1mr[0m|| 8
[32;1m[Board] [0m  -------------------
[32;1m[Board] [0m7 ||[30;1mp[0m|[7;1m [0m|[30;1mp[0m|[30;1mp[0m|[30;1mp[0m|[30;1mp[0m| |[30;1mp[0m|| 7
[32;1m[Board] [0m  -------------------
[32;1m[Board] [0m6 ||[30;1mb[0m|[30;1mp[0m|[7;1m [0m| |[7;1m [0m| |[7;1m [0m| || 6
[32;1m[Board] [0m  -------------------
[32;1m[Board] [0m5 || |[7;1m [0m| |[7;1m [0m| |[7;1m [0m|[30;1mp[0m|[7;1m [0m|| 5
[32;1m[Board] [0m  -------------------
[32;1m[Board] [0m4 ||[7;1m [0m|[0;1mp[0m|[7;1m [0m| |[7;1m [0m|[0;1mp[0m|[7;1m [0m| || 4
[32;1m[Board] [0m  -------------------
[32;1m[Board] [0m3 ||[0;1mp[0m|[7;1m [0m| |[7;1m [0m| |[7;1m [0m| |[0;1mp[0m|| 3
[32;1m[Board] [0m  -------------------
[32;1m[Board] [0m2 ||[7;1m [0m| |[0;1mp[0m|[0;1mp[0m|[0;1mp[0m| |[0;1mp[0m| || 2
[32;1m[Board] [0m  -------------------
[32;1m[Board] [0m1 ||[0;1mr[0m|[0;1mk[0m|[0;1mb[0m|[0;1mQ[0m|[0;1mK[0m|[0;1mb[0m|[0;1mk[0m|[0;1mr[0m|| 1
[32;1m[Board] [0m  -------------------
[32;1m[Board] [0m    a b c d e f g h
[32;1m[Board] [0m
[32;1m[Referee] [0mThis is the turn of the Black player...
0 0 - 0 0 0 0 0 
0 - 0 0 0 0 - 0 
0 0 - - - - - - 
- - - - - - 0 - 
- 1 - - - 1 - - 
1 - - - - - - 1 
- - 1 1 1 - 1 - 
1 1 1 1 1 1 1 1 
--------
looking for king 0, 0Rook
0
looking for king 0, 1Knight
0
looking for king 0, 2Bishop
0
looking for king 0, 3Queen
0
looking for king 0, 4King
1
looking for king 0, 5Bishop
0
looking for king 0, 6Knight
0
looking for king 0, 7Rook
0
looking for king 1, 2Pawn
0
looking for king 1, 3Pawn
0
looking for king 1, 4Pawn
0
looking for king 1, 6Pawn
0
looking for king 2, 0Pawn
0
looking for king 2, 7Pawn
0
looking for king 3, 1Pawn
0
looking for king 3, 5Pawn
0
looking for king 4, 6Pawn
0
looking for king 5, 0Bishop
0
looking for king 5, 1Pawn
0
looking for king 6, 0Pawn
0
looking for king 6, 2Pawn
0
looking for king 6, 3Pawn
0
looking for king 6, 4Pawn
0
looking for king 6, 5Pawn
0
looking for king 6, 7Pawn
0
looking for king 7, 0Rook
0
looking for king 7, 1Knight
0
looking for king 7, 3Queen
0
looking for king 7, 4King
1
From (4, 6) to (3, 6)
From (4, 6) to (3, 5)
From (5, 0) to (6, 1)
From (5, 0) to (7, 2)
From (5, 0) to (4, 1)
From (5, 0) to (3, 2)
From (5, 0) to (2, 3)
From (5, 0) to (1, 4)
From (5, 1) to (4, 1)
From (6, 2) to (5, 2)
From (6, 2) to (4, 2)
From (6, 3) to (5, 3)
From (6, 3) to (4, 3)
From (6, 4) to (5, 4)
From (6, 4) to (4, 4)
From (6, 5) to (5, 5)
From (6, 5) to (4, 5)
From (6, 7) to (5, 7)
From (6, 7) to (4, 7)
From (7, 1) to (5, 2)
From (7, 3) to (7, 2)
From (7, 5) to (6, 6)
From (7, 5) to (5, 7)
From (7, 6) to (5, 7)
From (7, 6) to (5, 5)
[32;1m[Game] [0mPlayer's error code: 0
[32;1m[Game] [0mChecking move validity...
[32;1m[Board] [0mInitializing board...
[32;1m[Board] [0mLoading history file `championship/lizzie-iii-check-innit-mate/history.csv`...
[32;1m[Board] [0mLoaded 7 move(s).
[32;1m[Board] [0mLoading move file `championship/lizzie-iii-check-innit-mate/move.csv`...
[32;1m[Board] [0mBlack player is playing g5 to g4.
[32;1m[Board] [0m
[32;1m[Board] [0m    a b c d e f g h 
[32;1m[Board] [0m  -------------------
[32;1m[Board] [0m8 ||[30;1mr[0m|[30;1mk[0m|[7;1m [0m|[30;1mQ[0m|[30;1mK[0m|[30;1mb[0m|[30;1mk[0m|[30;1mr[0m|| 8
[32;1m[Board] [0m  -------------------
[32;1m[Board] [0m7 ||[30;1mp[0m|[7;1m [0m|[30;1mp[0m|[30;1mp[0m|[30;1mp[0m|[30;1mp[0m| |[30;1mp[0m|| 7
[32;1m[Board] [0m  -------------------
[32;1m[Board] [0m6 ||[30;1mb[0m|[30;1mp[0m|[7;1m [0m| |[7;1m [0m| |[7;1m [0m| || 6
[32;1m[Board] [0m  -------------------
[32;1m[Board] [0m5 || |[7;1m [0m| |[7;1m [0m| |[7;1m [0m| |[7;1m [0m|| 5
[32;1m[Board] [0m  -------------------
[32;1m[Board] [0m4 ||[7;1m [0m|[0;1mp[0m|[7;1m [0m| |[7;1m [0m|[0;1mp[0m|[30;1mp[0m| || 4
[32;1m[Board] [0m  -------------------
[32;1m[Board] [0m3 ||[0;1mp[0m|[7;1m [0m| |[7;1m [0m| |[7;1m [0m| |[0;1mp[0m|| 3
[32;1m[Board] [0m  -------------------
[32;1m[Board] [0m2 ||[7;1m [0m| |[0;1mp[0m|[0;1mp[0m|[0;1mp[0m| |[0;1mp[0m| || 2
[32;1m[Board] [0m  -------------------
[32;1m[Board] [0m1 ||[0;1mr[0m|[0;1mk[0m|[0;1mb[0m|[0;1mQ[0m|[0;1mK[0m|[0;1mb[0m|[0;1mk[0m|[0;1mr[0m|| 1
[32;1m[Board] [0m  -------------------
[32;1m[Board] [0m    a b c d e f g h
[32;1m[Board] [0m
[32;1m[Referee] [0mThis is the turn of the White player...
Input file: championship/lizzie-iii-check-innit-mate/history.csv
Output file: championship/lizzie-iii-check-innit-mate/move.csv
Turn of: white
Succesful move
b2b4
8 | R N B Q K B N R 
7 | P P P P P P P P 
6 | _ _ _ _ _ _ _ _ 
5 | _ _ _ _ _ _ _ _ 
4 | _ P _ _ _ _ _ _ 
3 | _ _ _ _ _ _ _ _ 
2 | P _ P P P P P P 
1 | R N B Q K B N R 
-------------------
  | A B C D E F G H 

Turn of: black
Succesful move
g7g5
8 | R N B Q K B N R 
7 | P P P P P P _ P 
6 | _ _ _ _ _ _ _ _ 
5 | _ _ _ _ _ _ P _ 
4 | _ P _ _ _ _ _ _ 
3 | _ _ _ _ _ _ _ _ 
2 | P _ P P P P P P 
1 | R N B Q K B N R 
-------------------
  | A B C D E F G H 

Turn of: white
Succesful move
f2f4
8 | R N B Q K B N R 
7 | P P P P P P _ P 
6 | _ _ _ _ _ _ _ _ 
5 | _ _ _ _ _ _ P _ 
4 | _ P _ _ _ P _ _ 
3 | _ _ _ _ _ _ _ _ 
2 | P _ P P P _ P P 
1 | R N B Q K B N R 
-------------------
  | A B C D E F G H 

Turn of: black
Succesful move
b7b6
8 | R N B Q K B N R 
7 | P _ P P P P _ P 
6 | _ P _ _ _ _ _ _ 
5 | _ _ _ _ _ _ P _ 
4 | _ P _ _ _ P _ _ 
3 | _ _ _ _ _ _ _ _ 
2 | P _ P P P _ P P 
1 | R N B Q K B N R 
-------------------
  | A B C D E F G H 

Turn of: white
Succesful move
a2a3
8 | R N B Q K B N R 
7 | P _ P P P P _ P 
6 | _ P _ _ _ _ _ _ 
5 | _ _ _ _ _ _ P _ 
4 | _ P _ _ _ P _ _ 
3 | P _ _ _ _ _ _ _ 
2 | _ _ P P P _ P P 
1 | R N B Q K B N R 
-------------------
  | A B C D E F G H 

Turn of: black
Succesful move
c8a6
8 | R N _ Q K B N R 
7 | P _ P P P P _ P 
6 | B P _ _ _ _ _ _ 
5 | _ _ _ _ _ _ P _ 
4 | _ P _ _ _ P _ _ 
3 | P _ _ _ _ _ _ _ 
2 | _ _ P P P _ P P 
1 | R N B Q K B N R 
-------------------
  | A B C D E F G H 

Turn of: white
Succesful move
h2h3
8 | R N _ Q K B N R 
7 | P _ P P P P _ P 
6 | B P _ _ _ _ _ _ 
5 | _ _ _ _ _ _ P _ 
4 | _ P _ _ _ P _ _ 
3 | P _ _ _ _ _ _ P 
2 | _ _ P P P _ P _ 
1 | R N B Q K B N R 
-------------------
  | A B C D E F G H 

Turn of: black
Succesful move
g5g4
8 | R N _ Q K B N R 
7 | P _ P P P P _ P 
6 | B P _ _ _ _ _ _ 
5 | _ _ _ _ _ _ _ _ 
4 | _ P _ _ _ P P _ 
3 | P _ _ _ _ _ _ P 
2 | _ _ P P P _ P _ 
1 | R N B Q K B N R 
-------------------
  | A B C D E F G H 

We are playing as White
Move history:
b2b4
g7g5
f2f4
b7b6
a2a3
c8a6
h2h3
g5g4
8 | R N _ Q K B N R 
7 | P _ P P P P _ P 
6 | B P _ _ _ _ _ _ 
5 | _ _ _ _ _ _ _ _ 
4 | _ P _ _ _ P P _ 
3 | P _ _ _ _ _ _ P 
2 | _ _ P P P _ P _ 
1 | R N B Q K B N R 
-------------------
  | A B C D E F G H 

It is white's turn to play.
AI's move: h3h4
Move written: h3h4
[32;1m[Game] [0mPlayer's error code: 0
[32;1m[Game] [0mChecking move validity...
[32;1m[Board] [0mInitializing board...
[32;1m[Board] [0mLoading history file `championship/lizzie-iii-check-innit-mate/history.csv`...
[32;1m[Board] [0mLoaded 8 move(s).
[32;1m[Board] [0mLoading move file `championship/lizzie-iii-check-innit-mate/move.csv`...
[32;1m[Board] [0mWhite player is playing h3 to h4.
[32;1m[Board] [0m
[32;1m[Board] [0m    a b c d e f g h 
[32;1m[Board] [0m  -------------------
[32;1m[Board] [0m8 ||[30;1mr[0m|[30;1mk[0m|[7;1m [0m|[30;1mQ[0m|[30;1mK[0m|[30;1mb[0m|[30;1mk[0m|[30;1mr[0m|| 8
[32;1m[Board] [0m  -------------------
[32;1m[Board] [0m7 ||[30;1mp[0m|[7;1m [0m|[30;1mp[0m|[30;1mp[0m|[30;1mp[0m|[30;1mp[0m| |[30;1mp[0m|| 7
[32;1m[Board] [0m  -------------------
[32;1m[Board] [0m6 ||[30;1mb[0m|[30;1mp[0m|[7;1m [0m| |[7;1m [0m| |[7;1m [0m| || 6
[32;1m[Board] [0m  -------------------
[32;1m[Board] [0m5 || |[7;1m [0m| |[7;1m [0m| |[7;1m [0m| |[7;1m [0m|| 5
[32;1m[Board] [0m  -------------------
[32;1m[Board] [0m4 ||[7;1m [0m|[0;1mp[0m|[7;1m [0m| |[7;1m [0m|[0;1mp[0m|[30;1mp[0m|[0;1mp[0m|| 4
[32;1m[Board] [0m  -------------------
[32;1m[Board] [0m3 ||[0;1mp[0m|[7;1m [0m| |[7;1m [0m| |[7;1m [0m| |[7;1m [0m|| 3
[32;1m[Board] [0m  -------------------
[32;1m[Board] [0m2 ||[7;1m [0m| |[0;1mp[0m|[0;1mp[0m|[0;1mp[0m| |[0;1mp[0m| || 2
[32;1m[Board] [0m  -------------------
[32;1m[Board] [0m1 ||[0;1mr[0m|[0;1mk[0m|[0;1mb[0m|[0;1mQ[0m|[0;1mK[0m|[0;1mb[0m|[0;1mk[0m|[0;1mr[0m|| 1
[32;1m[Board] [0m  -------------------
[32;1m[Board] [0m    a b c d e f g h
[32;1m[Board] [0m
[32;1m[Referee] [0mThis is the turn of the Black player...
0 0 - 0 0 0 0 0 
0 - 0 0 0 0 - 0 
0 0 - - - - - - 
- - - - - - - - 
- 1 - - - 1 0 1 
1 - - - - - - - 
- - 1 1 1 - 1 - 
1 1 1 1 1 1 1 1 
--------
looking for king 0, 0Rook
0
looking for king 0, 1Knight
0
looking for king 0, 2Bishop
0
looking for king 0, 3Queen
0
looking for king 0, 4King
1
looking for king 0, 5Bishop
0
looking for king 0, 6Knight
0
looking for king 0, 7Rook
0
looking for king 1, 2Pawn
0
looking for king 1, 3Pawn
0
looking for king 1, 4Pawn
0
looking for king 1, 6Pawn
0
looking for king 2, 0Pawn
0
looking for king 3, 1Pawn
0
looking for king 3, 5Pawn
0
looking for king 3, 6Pawn
0
looking for king 3, 7Pawn
0
looking for king 5, 0Bishop
0
looking for king 5, 1Pawn
0
looking for king 6, 0Pawn
0
looking for king 6, 2Pawn
0
looking for king 6, 3Pawn
0
looking for king 6, 4Pawn
0
looking for king 6, 5Pawn
0
looking for king 6, 7Pawn
0
looking for king 7, 0Rook
0
looking for king 7, 1Knight
0
looking for king 7, 3Queen
0
looking for king 7, 4King
1
From (3, 6) to (2, 6)
From (5, 0) to (6, 1)
From (5, 0) to (7, 2)
From (5, 0) to (4, 1)
From (5, 0) to (3, 2)
From (5, 0) to (2, 3)
From (5, 0) to (1, 4)
From (5, 1) to (4, 1)
From (6, 2) to (5, 2)
From (6, 2) to (4, 2)
From (6, 3) to (5, 3)
From (6, 3) to (4, 3)
From (6, 4) to (5, 4)
From (6, 4) to (4, 4)
From (6, 5) to (5, 5)
From (6, 5) to (4, 5)
From (6, 7) to (5, 7)
From (6, 7) to (4, 7)
From (7, 1) to (5, 2)
From (7, 3) to (7, 2)
From (7, 5) to (6, 6)
From (7, 5) to (5, 7)
From (7, 6) to (5, 7)
From (7, 6) to (5, 5)
[32;1m[Game] [0mPlayer's error code: 0
[32;1m[Game] [0mChecking move validity...
[32;1m[Board] [0mInitializing board...
[32;1m[Board] [0mLoading history file `championship/lizzie-iii-check-innit-mate/history.csv`...
[32;1m[Board] [0mLoaded 9 move(s).
[32;1m[Board] [0mLoading move file `championship/lizzie-iii-check-innit-mate/move.csv`...
[32;1m[Board] [0mBlack player is playing e7 to e6.
[32;1m[Board] [0m
[32;1m[Board] [0m    a b c d e f g h 
[32;1m[Board] [0m  -------------------
[32;1m[Board] [0m8 ||[30;1mr[0m|[30;1mk[0m|[7;1m [0m|[30;1mQ[0m|[30;1mK[0m|[30;1mb[0m|[30;1mk[0m|[30;1mr[0m|| 8
[32;1m[Board] [0m  -------------------
[32;1m[Board] [0m7 ||[30;1mp[0m|[7;1m [0m|[30;1mp[0m|[30;1mp[0m| |[30;1mp[0m| |[30;1mp[0m|| 7
[32;1m[Board] [0m  -------------------
[32;1m[Board] [0m6 ||[30;1mb[0m|[30;1mp[0m|[7;1m [0m| |[30;1mp[0m| |[7;1m [0m| || 6
[32;1m[Board] [0m  -------------------
[32;1m[Board] [0m5 || |[7;1m [0m| |[7;1m [0m| |[7;1m [0m| |[7;1m [0m|| 5
[32;1m[Board] [0m  -------------------
[32;1m[Board] [0m4 ||[7;1m [0m|[0;1mp[0m|[7;1m [0m| |[7;1m [0m|[0;1mp[0m|[30;1mp[0m|[0;1mp[0m|| 4
[32;1m[Board] [0m  -------------------
[32;1m[Board] [0m3 ||[0;1mp[0m|[7;1m [0m| |[7;1m [0m| |[7;1m [0m| |[7;1m [0m|| 3
[32;1m[Board] [0m  -------------------
[32;1m[Board] [0m2 ||[7;1m [0m| |[0;1mp[0m|[0;1mp[0m|[0;1mp[0m| |[0;1mp[0m| || 2
[32;1m[Board] [0m  -------------------
[32;1m[Board] [0m1 ||[0;1mr[0m|[0;1mk[0m|[0;1mb[0m|[0;1mQ[0m|[0;1mK[0m|[0;1mb[0m|[0;1mk[0m|[0;1mr[0m|| 1
[32;1m[Board] [0m  -------------------
[32;1m[Board] [0m    a b c d e f g h
[32;1m[Board] [0m
[32;1m[Referee] [0mThis is the turn of the White player...
Input file: championship/lizzie-iii-check-innit-mate/history.csv
Output file: championship/lizzie-iii-check-innit-mate/move.csv
Turn of: white
Succesful move
b2b4
8 | R N B Q K B N R 
7 | P P P P P P P P 
6 | _ _ _ _ _ _ _ _ 
5 | _ _ _ _ _ _ _ _ 
4 | _ P _ _ _ _ _ _ 
3 | _ _ _ _ _ _ _ _ 
2 | P _ P P P P P P 
1 | R N B Q K B N R 
-------------------
  | A B C D E F G H 

Turn of: black
Succesful move
g7g5
8 | R N B Q K B N R 
7 | P P P P P P _ P 
6 | _ _ _ _ _ _ _ _ 
5 | _ _ _ _ _ _ P _ 
4 | _ P _ _ _ _ _ _ 
3 | _ _ _ _ _ _ _ _ 
2 | P _ P P P P P P 
1 | R N B Q K B N R 
-------------------
  | A B C D E F G H 

Turn of: white
Succesful move
f2f4
8 | R N B Q K B N R 
7 | P P P P P P _ P 
6 | _ _ _ _ _ _ _ _ 
5 | _ _ _ _ _ _ P _ 
4 | _ P _ _ _ P _ _ 
3 | _ _ _ _ _ _ _ _ 
2 | P _ P P P _ P P 
1 | R N B Q K B N R 
-------------------
  | A B C D E F G H 

Turn of: black
Succesful move
b7b6
8 | R N B Q K B N R 
7 | P _ P P P P _ P 
6 | _ P _ _ _ _ _ _ 
5 | _ _ _ _ _ _ P _ 
4 | _ P _ _ _ P _ _ 
3 | _ _ _ _ _ _ _ _ 
2 | P _ P P P _ P P 
1 | R N B Q K B N R 
-------------------
  | A B C D E F G H 

Turn of: white
Succesful move
a2a3
8 | R N B Q K B N R 
7 | P _ P P P P _ P 
6 | _ P _ _ _ _ _ _ 
5 | _ _ _ _ _ _ P _ 
4 | _ P _ _ _ P _ _ 
3 | P _ _ _ _ _ _ _ 
2 | _ _ P P P _ P P 
1 | R N B Q K B N R 
-------------------
  | A B C D E F G H 

Turn of: black
Succesful move
c8a6
8 | R N _ Q K B N R 
7 | P _ P P P P _ P 
6 | B P _ _ _ _ _ _ 
5 | _ _ _ _ _ _ P _ 
4 | _ P _ _ _ P _ _ 
3 | P _ _ _ _ _ _ _ 
2 | _ _ P P P _ P P 
1 | R N B Q K B N R 
-------------------
  | A B C D E F G H 

Turn of: white
Succesful move
h2h3
8 | R N _ Q K B N R 
7 | P _ P P P P _ P 
6 | B P _ _ _ _ _ _ 
5 | _ _ _ _ _ _ P _ 
4 | _ P _ _ _ P _ _ 
3 | P _ _ _ _ _ _ P 
2 | _ _ P P P _ P _ 
1 | R N B Q K B N R 
-------------------
  | A B C D E F G H 

Turn of: black
Succesful move
g5g4
8 | R N _ Q K B N R 
7 | P _ P P P P _ P 
6 | B P _ _ _ _ _ _ 
5 | _ _ _ _ _ _ _ _ 
4 | _ P _ _ _ P P _ 
3 | P _ _ _ _ _ _ P 
2 | _ _ P P P _ P _ 
1 | R N B Q K B N R 
-------------------
  | A B C D E F G H 

Turn of: white
Succesful move
h3h4
8 | R N _ Q K B N R 
7 | P _ P P P P _ P 
6 | B P _ _ _ _ _ _ 
5 | _ _ _ _ _ _ _ _ 
4 | _ P _ _ _ P P P 
3 | P _ _ _ _ _ _ _ 
2 | _ _ P P P _ P _ 
1 | R N B Q K B N R 
-------------------
  | A B C D E F G H 

Turn of: black
Succesful move
e7e6
8 | R N _ Q K B N R 
7 | P _ P P _ P _ P 
6 | B P _ _ P _ _ _ 
5 | _ _ _ _ _ _ _ _ 
4 | _ P _ _ _ P P P 
3 | P _ _ _ _ _ _ _ 
2 | _ _ P P P _ P _ 
1 | R N B Q K B N R 
-------------------
  | A B C D E F G H 

We are playing as White
Move history:
b2b4
g7g5
f2f4
b7b6
a2a3
c8a6
h2h3
g5g4
h3h4
e7e6
8 | R N _ Q K B N R 
7 | P _ P P _ P _ P 
6 | B P _ _ P _ _ _ 
5 | _ _ _ _ _ _ _ _ 
4 | _ P _ _ _ P P P 
3 | P _ _ _ _ _ _ _ 
2 | _ _ P P P _ P _ 
1 | R N B Q K B N R 
-------------------
  | A B C D E F G H 

It is white's turn to play.
AI's move: c2c3
Move written: c2c3
[32;1m[Game] [0mPlayer's error code: 0
[32;1m[Game] [0mChecking move validity...
[32;1m[Board] [0mInitializing board...
[32;1m[Board] [0mLoading history file `championship/lizzie-iii-check-innit-mate/history.csv`...
[32;1m[Board] [0mLoaded 10 move(s).
[32;1m[Board] [0mLoading move file `championship/lizzie-iii-check-innit-mate/move.csv`...
[32;1m[Board] [0mWhite player is playing c2 to c3.
[32;1m[Board] [0m
[32;1m[Board] [0m    a b c d e f g h 
[32;1m[Board] [0m  -------------------
[32;1m[Board] [0m8 ||[30;1mr[0m|[30;1mk[0m|[7;1m [0m|[30;1mQ[0m|[30;1mK[0m|[30;1mb[0m|[30;1mk[0m|[30;1mr[0m|| 8
[32;1m[Board] [0m  -------------------
[32;1m[Board] [0m7 ||[30;1mp[0m|[7;1m [0m|[30;1mp[0m|[30;1mp[0m| |[30;1mp[0m| |[30;1mp[0m|| 7
[32;1m[Board] [0m  -------------------
[32;1m[Board] [0m6 ||[30;1mb[0m|[30;1mp[0m|[7;1m [0m| |[30;1mp[0m| |[7;1m [0m| || 6
[32;1m[Board] [0m  -------------------
[32;1m[Board] [0m5 || |[7;1m [0m| |[7;1m [0m| |[7;1m [0m| |[7;1m [0m|| 5
[32;1m[Board] [0m  -------------------
[32;1m[Board] [0m4 ||[7;1m [0m|[0;1mp[0m|[7;1m [0m| |[7;1m [0m|[0;1mp[0m|[30;1mp[0m|[0;1mp[0m|| 4
[32;1m[Board] [0m  -------------------
[32;1m[Board] [0m3 ||[0;1mp[0m|[7;1m [0m|[0;1mp[0m|[7;1m [0m| |[7;1m [0m| |[7;1m [0m|| 3
[32;1m[Board] [0m  -------------------
[32;1m[Board] [0m2 ||[7;1m [0m| |[7;1m [0m|[0;1mp[0m|[0;1mp[0m| |[0;1mp[0m| || 2
[32;1m[Board] [0m  -------------------
[32;1m[Board] [0m1 ||[0;1mr[0m|[0;1mk[0m|[0;1mb[0m|[0;1mQ[0m|[0;1mK[0m|[0;1mb[0m|[0;1mk[0m|[0;1mr[0m|| 1
[32;1m[Board] [0m  -------------------
[32;1m[Board] [0m    a b c d e f g h
[32;1m[Board] [0m
[32;1m[Referee] [0mThis is the turn of the Black player...
0 0 - 0 0 0 0 0 
0 - 0 0 - 0 - 0 
0 0 - - 0 - - - 
- - - - - - - - 
- 1 - - - 1 0 1 
1 - 1 - - - - - 
- - - 1 1 - 1 - 
1 1 1 1 1 1 1 1 
--------
looking for king 0, 0Rook
0
looking for king 0, 1Knight
0
looking for king 0, 2Bishop
0
looking for king 0, 3Queen
0
looking for king 0, 4King
1
looking for king 0, 5Bishop
0
looking for king 0, 6Knight
0
looking for king 0, 7Rook
0
looking for king 1, 3Pawn
0
looking for king 1, 4Pawn
0
looking for king 1, 6Pawn
0
looking for king 2, 0Pawn
0
looking for king 2, 2Pawn
0
looking for king 3, 1Pawn
0
looking for king 3, 5Pawn
0
looking for king 3, 6Pawn
0
looking for king 3, 7Pawn
0
looking for king 5, 0Bishop
0
looking for king 5, 1Pawn
0
looking for king 5, 4Pawn
0
looking for king 6, 0Pawn
0
looking for king 6, 2Pawn
0
looking for king 6, 3Pawn
0
looking for king 6, 5Pawn
0
looking for king 6, 7Pawn
0
looking for king 7, 0Rook
0
looking for king 7, 1Knight
0
looking for king 7, 3Queen
0
looking for king 7, 4King
1
From (3, 6) to (2, 6)
From (5, 0) to (6, 1)
From (5, 0) to (7, 2)
From (5, 0) to (4, 1)
From (5, 0) to (3, 2)
From (5, 0) to (2, 3)
From (5, 0) to (1, 4)
From (5, 1) to (4, 1)
From (5, 4) to (4, 4)
From (6, 2) to (5, 2)
From (6, 2) to (4, 2)
From (6, 3) to (5, 3)
From (6, 3) to (4, 3)
From (6, 5) to (5, 5)
From (6, 5) to (4, 5)
From (6, 7) to (5, 7)
From (6, 7) to (4, 7)
From (7, 1) to (5, 2)
From (7, 3) to (6, 4)
From (7, 3) to (5, 5)
From (7, 3) to (4, 6)
From (7, 3) to (3, 7)
From (7, 3) to (7, 2)
From (7, 4) to (6, 4)
From (7, 5) to (6, 6)
From (7, 5) to (5, 7)
From (7, 5) to (6, 4)
From (7, 5) to (5, 3)
From (7, 5) to (4, 2)
From (7, 5) to (3, 1)
From (7, 6) to (5, 7)
From (7, 6) to (5, 5)
From (7, 6) to (6, 4)
[32;1m[Game] [0mPlayer's error code: 0
[32;1m[Game] [0mChecking move validity...
[32;1m[Board] [0mInitializing board...
[32;1m[Board] [0mLoading history file `championship/lizzie-iii-check-innit-mate/history.csv`...
[32;1m[Board] [0mLoaded 11 move(s).
[32;1m[Board] [0mLoading move file `championship/lizzie-iii-check-innit-mate/move.csv`...
[32;1m[Board] [0mBlack player is playing a6 to b5.
[32;1m[Board] [0m
[32;1m[Board] [0m    a b c d e f g h 
[32;1m[Board] [0m  -------------------
[32;1m[Board] [0m8 ||[30;1mr[0m|[30;1mk[0m|[7;1m [0m|[30;1mQ[0m|[30;1mK[0m|[30;1mb[0m|[30;1mk[0m|[30;1mr[0m|| 8
[32;1m[Board] [0m  -------------------
[32;1m[Board] [0m7 ||[30;1mp[0m|[7;1m [0m|[30;1mp[0m|[30;1mp[0m| |[30;1mp[0m| |[30;1mp[0m|| 7
[32;1m[Board] [0m  -------------------
[32;1m[Board] [0m6 ||[7;1m [0m|[30;1mp[0m|[7;1m [0m| |[30;1mp[0m| |[7;1m [0m| || 6
[32;1m[Board] [0m  -------------------
[32;1m[Board] [0m5 || |[30;1mb[0m| |[7;1m [0m| |[7;1m [0m| |[7;1m [0m|| 5
[32;1m[Board] [0m  -------------------
[32;1m[Board] [0m4 ||[7;1m [0m|[0;1mp[0m|[7;1m [0m| |[7;1m [0m|[0;1mp[0m|[30;1mp[0m|[0;1mp[0m|| 4
[32;1m[Board] [0m  -------------------
[32;1m[Board] [0m3 ||[0;1mp[0m|[7;1m [0m|[0;1mp[0m|[7;1m [0m| |[7;1m [0m| |[7;1m [0m|| 3
[32;1m[Board] [0m  -------------------
[32;1m[Board] [0m2 ||[7;1m [0m| |[7;1m [0m|[0;1mp[0m|[0;1mp[0m| |[0;1mp[0m| || 2
[32;1m[Board] [0m  -------------------
[32;1m[Board] [0m1 ||[0;1mr[0m|[0;1mk[0m|[0;1mb[0m|[0;1mQ[0m|[0;1mK[0m|[0;1mb[0m|[0;1mk[0m|[0;1mr[0m|| 1
[32;1m[Board] [0m  -------------------
[32;1m[Board] [0m    a b c d e f g h
[32;1m[Board] [0m
[32;1m[Referee] [0mThis is the turn of the White player...
Input file: championship/lizzie-iii-check-innit-mate/history.csv
Output file: championship/lizzie-iii-check-innit-mate/move.csv
Turn of: white
Succesful move
b2b4
8 | R N B Q K B N R 
7 | P P P P P P P P 
6 | _ _ _ _ _ _ _ _ 
5 | _ _ _ _ _ _ _ _ 
4 | _ P _ _ _ _ _ _ 
3 | _ _ _ _ _ _ _ _ 
2 | P _ P P P P P P 
1 | R N B Q K B N R 
-------------------
  | A B C D E F G H 

Turn of: black
Succesful move
g7g5
8 | R N B Q K B N R 
7 | P P P P P P _ P 
6 | _ _ _ _ _ _ _ _ 
5 | _ _ _ _ _ _ P _ 
4 | _ P _ _ _ _ _ _ 
3 | _ _ _ _ _ _ _ _ 
2 | P _ P P P P P P 
1 | R N B Q K B N R 
-------------------
  | A B C D E F G H 

Turn of: white
Succesful move
f2f4
8 | R N B Q K B N R 
7 | P P P P P P _ P 
6 | _ _ _ _ _ _ _ _ 
5 | _ _ _ _ _ _ P _ 
4 | _ P _ _ _ P _ _ 
3 | _ _ _ _ _ _ _ _ 
2 | P _ P P P _ P P 
1 | R N B Q K B N R 
-------------------
  | A B C D E F G H 

Turn of: black
Succesful move
b7b6
8 | R N B Q K B N R 
7 | P _ P P P P _ P 
6 | _ P _ _ _ _ _ _ 
5 | _ _ _ _ _ _ P _ 
4 | _ P _ _ _ P _ _ 
3 | _ _ _ _ _ _ _ _ 
2 | P _ P P P _ P P 
1 | R N B Q K B N R 
-------------------
  | A B C D E F G H 

Turn of: white
Succesful move
a2a3
8 | R N B Q K B N R 
7 | P _ P P P P _ P 
6 | _ P _ _ _ _ _ _ 
5 | _ _ _ _ _ _ P _ 
4 | _ P _ _ _ P _ _ 
3 | P _ _ _ _ _ _ _ 
2 | _ _ P P P _ P P 
1 | R N B Q K B N R 
-------------------
  | A B C D E F G H 

Turn of: black
Succesful move
c8a6
8 | R N _ Q K B N R 
7 | P _ P P P P _ P 
6 | B P _ _ _ _ _ _ 
5 | _ _ _ _ _ _ P _ 
4 | _ P _ _ _ P _ _ 
3 | P _ _ _ _ _ _ _ 
2 | _ _ P P P _ P P 
1 | R N B Q K B N R 
-------------------
  | A B C D E F G H 

Turn of: white
Succesful move
h2h3
8 | R N _ Q K B N R 
7 | P _ P P P P _ P 
6 | B P _ _ _ _ _ _ 
5 | _ _ _ _ _ _ P _ 
4 | _ P _ _ _ P _ _ 
3 | P _ _ _ _ _ _ P 
2 | _ _ P P P _ P _ 
1 | R N B Q K B N R 
-------------------
  | A B C D E F G H 

Turn of: black
Succesful move
g5g4
8 | R N _ Q K B N R 
7 | P _ P P P P _ P 
6 | B P _ _ _ _ _ _ 
5 | _ _ _ _ _ _ _ _ 
4 | _ P _ _ _ P P _ 
3 | P _ _ _ _ _ _ P 
2 | _ _ P P P _ P _ 
1 | R N B Q K B N R 
-------------------
  | A B C D E F G H 

Turn of: white
Succesful move
h3h4
8 | R N _ Q K B N R 
7 | P _ P P P P _ P 
6 | B P _ _ _ _ _ _ 
5 | _ _ _ _ _ _ _ _ 
4 | _ P _ _ _ P P P 
3 | P _ _ _ _ _ _ _ 
2 | _ _ P P P _ P _ 
1 | R N B Q K B N R 
-------------------
  | A B C D E F G H 

Turn of: black
Succesful move
e7e6
8 | R N _ Q K B N R 
7 | P _ P P _ P _ P 
6 | B P _ _ P _ _ _ 
5 | _ _ _ _ _ _ _ _ 
4 | _ P _ _ _ P P P 
3 | P _ _ _ _ _ _ _ 
2 | _ _ P P P _ P _ 
1 | R N B Q K B N R 
-------------------
  | A B C D E F G H 

Turn of: white
Succesful move
c2c3
8 | R N _ Q K B N R 
7 | P _ P P _ P _ P 
6 | B P _ _ P _ _ _ 
5 | _ _ _ _ _ _ _ _ 
4 | _ P _ _ _ P P P 
3 | P _ P _ _ _ _ _ 
2 | _ _ _ P P _ P _ 
1 | R N B Q K B N R 
-------------------
  | A B C D E F G H 

Turn of: black
Succesful move
a6b5
8 | R N _ Q K B N R 
7 | P _ P P _ P _ P 
6 | _ P _ _ P _ _ _ 
5 | _ B _ _ _ _ _ _ 
4 | _ P _ _ _ P P P 
3 | P _ P _ _ _ _ _ 
2 | _ _ _ P P _ P _ 
1 | R N B Q K B N R 
-------------------
  | A B C D E F G H 

We are playing as White
Move history:
b2b4
g7g5
f2f4
b7b6
a2a3
c8a6
h2h3
g5g4
h3h4
e7e6
c2c3
a6b5
8 | R N _ Q K B N R 
7 | P _ P P _ P _ P 
6 | _ P _ _ P _ _ _ 
5 | _ B _ _ _ _ _ _ 
4 | _ P _ _ _ P P P 
3 | P _ P _ _ _ _ _ 
2 | _ _ _ P P _ P _ 
1 | R N B Q K B N R 
-------------------
  | A B C D E F G H 

It is white's turn to play.
AI's move: e2e4
Move written: e2e4
[32;1m[Game] [0mPlayer's error code: 0
[32;1m[Game] [0mChecking move validity...
[32;1m[Board] [0mInitializing board...
[32;1m[Board] [0mLoading history file `championship/lizzie-iii-check-innit-mate/history.csv`...
[32;1m[Board] [0mLoaded 12 move(s).
[32;1m[Board] [0mLoading move file `championship/lizzie-iii-check-innit-mate/move.csv`...
[32;1m[Board] [0mWhite player is playing e2 to e4.
[32;1m[Board] [0m
[32;1m[Board] [0m    a b c d e f g h 
[32;1m[Board] [0m  -------------------
[32;1m[Board] [0m8 ||[30;1mr[0m|[30;1mk[0m|[7;1m [0m|[30;1mQ[0m|[30;1mK[0m|[30;1mb[0m|[30;1mk[0m|[30;1mr[0m|| 8
[32;1m[Board] [0m  -------------------
[32;1m[Board] [0m7 ||[30;1mp[0m|[7;1m [0m|[30;1mp[0m|[30;1mp[0m| |[30;1mp[0m| |[30;1mp[0m|| 7
[32;1m[Board] [0m  -------------------
[32;1m[Board] [0m6 ||[7;1m [0m|[30;1mp[0m|[7;1m [0m| |[30;1mp[0m| |[7;1m [0m| || 6
[32;1m[Board] [0m  -------------------
[32;1m[Board] [0m5 || |[30;1mb[0m| |[7;1m [0m| |[7;1m [0m| |[7;1m [0m|| 5
[32;1m[Board] [0m  -------------------
[32;1m[Board] [0m4 ||[7;1m [0m|[0;1mp[0m|[7;1m [0m| |[0;1mp[0m|[0;1mp[0m|[30;1mp[0m|[0;1mp[0m|| 4
[32;1m[Board] [0m  -------------------
[32;1m[Board] [0m3 ||[0;1mp[0m|[7;1m [0m|[0;1mp[0m|[7;1m [0m| |[7;1m [0m| |[7;1m [0m|| 3
[32;1m[Board] [0m  -------------------
[32;1m[Board] [0m2 ||[7;1m [0m| |[7;1m [0m|[0;1mp[0m|[7;1m [0m| |[0;1mp[0m| || 2
[32;1m[Board] [0m  -------------------
[32;1m[Board] [0m1 ||[0;1mr[0m|[0;1mk[0m|[0;1mb[0m|[0;1mQ[0m|[0;1mK[0m|[0;1mb[0m|[0;1mk[0m|[0;1mr[0m|| 1
[32;1m[Board] [0m  -------------------
[32;1m[Board] [0m    a b c d e f g h
[32;1m[Board] [0m
[32;1m[Referee] [0mThis is the turn of the Black player...
0 0 - 0 0 0 0 0 
0 - 0 0 - 0 - 0 
- 0 - - 0 - - - 
- 0 - - - - - - 
- 1 - - 1 1 0 1 
1 - 1 - - - - - 
- - - 1 - - 1 - 
1 1 1 1 1 1 1 1 
--------
looking for king 0, 0Rook
0
looking for king 0, 1Knight
0
looking for king 0, 2Bishop
0
looking for king 0, 3Queen
0
looking for king 0, 4King
1
looking for king 0, 5Bishop
0
looking for king 0, 6Knight
0
looking for king 0, 7Rook
0
looking for king 1, 3Pawn
0
looking for king 1, 6Pawn
0
looking for king 2, 0Pawn
0
looking for king 2, 2Pawn
0
looking for king 3, 1Pawn
0
looking for king 3, 4Pawn
0
looking for king 3, 5Pawn
0
looking for king 3, 6Pawn
0
looking for king 3, 7Pawn
0
looking for king 4, 1Bishop
0
looking for king 5, 1Pawn
0
looking for king 5, 4Pawn
0
looking for king 6, 0Pawn
0
looking for king 6, 2Pawn
0
looking for king 6, 3Pawn
0
looking for king 6, 5Pawn
0
looking for king 6, 7Pawn
0
looking for king 7, 0Rook
0
looking for king 7, 1Knight
0
looking for king 7, 3Queen
0
looking for king 7, 4King
1
From (3, 6) to (2, 6)
From (4, 1) to (5, 2)
From (4, 1) to (5, 0)
From (4, 1) to (3, 2)
From (4, 1) to (2, 3)
From (4, 1) to (1, 4)
From (4, 1) to (0, 5)
From (4, 1) to (3, 0)
From (5, 4) to (4, 4)
From (6, 0) to (5, 0)
From (6, 0) to (4, 0)
From (6, 2) to (5, 2)
From (6, 2) to (4, 2)
From (6, 3) to (5, 3)
From (6, 3) to (4, 3)
From (6, 5) to (5, 5)
From (6, 5) to (4, 5)
From (6, 7) to (5, 7)
From (6, 7) to (4, 7)
From (7, 1) to (5, 2)
From (7, 1) to (5, 0)
From (7, 3) to (6, 4)
From (7, 3) to (5, 5)
From (7, 3) to (4, 6)
From (7, 3) to (3, 7)
From (7, 3) to (7, 2)
From (7, 4) to (6, 4)
From (7, 5) to (6, 6)
From (7, 5) to (5, 7)
From (7, 5) to (6, 4)
From (7, 5) to (5, 3)
From (7, 5) to (4, 2)
From (7, 5) to (3, 1)
From (7, 6) to (5, 7)
From (7, 6) to (5, 5)
From (7, 6) to (6, 4)
[32;1m[Game] [0mPlayer's error code: 0
[32;1m[Game] [0mChecking move validity...
[32;1m[Board] [0mInitializing board...
[32;1m[Board] [0mLoading history file `championship/lizzie-iii-check-innit-mate/history.csv`...
[32;1m[Board] [0mLoaded 13 move(s).
[32;1m[Board] [0mLoading move file `championship/lizzie-iii-check-innit-mate/move.csv`...
[32;1m[Board] [0mBlack player is playing b5 to c4.
[32;1m[Board] [0m
[32;1m[Board] [0m    a b c d e f g h 
[32;1m[Board] [0m  -------------------
[32;1m[Board] [0m8 ||[30;1mr[0m|[30;1mk[0m|[7;1m [0m|[30;1mQ[0m|[30;1mK[0m|[30;1mb[0m|[30;1mk[0m|[30;1mr[0m|| 8
[32;1m[Board] [0m  -------------------
[32;1m[Board] [0m7 ||[30;1mp[0m|[7;1m [0m|[30;1mp[0m|[30;1mp[0m| |[30;1mp[0m| |[30;1mp[0m|| 7
[32;1m[Board] [0m  -------------------
[32;1m[Board] [0m6 ||[7;1m [0m|[30;1mp[0m|[7;1m [0m| |[30;1mp[0m| |[7;1m [0m| || 6
[32;1m[Board] [0m  -------------------
[32;1m[Board] [0m5 || |[7;1m [0m| |[7;1m [0m| |[7;1m [0m| |[7;1m [0m|| 5
[32;1m[Board] [0m  -------------------
[32;1m[Board] [0m4 ||[7;1m [0m|[0;1mp[0m|[30;1mb[0m| |[0;1mp[0m|[0;1mp[0m|[30;1mp[0m|[0;1mp[0m|| 4
[32;1m[Board] [0m  -------------------
[32;1m[Board] [0m3 ||[0;1mp[0m|[7;1m [0m|[0;1mp[0m|[7;1m [0m| |[7;1m [0m| |[7;1m [0m|| 3
[32;1m[Board] [0m  -------------------
[32;1m[Board] [0m2 ||[7;1m [0m| |[7;1m [0m|[0;1mp[0m|[7;1m [0m| |[0;1mp[0m| || 2
[32;1m[Board] [0m  -------------------
[32;1m[Board] [0m1 ||[0;1mr[0m|[0;1mk[0m|[0;1mb[0m|[0;1mQ[0m|[0;1mK[0m|[0;1mb[0m|[0;1mk[0m|[0;1mr[0m|| 1
[32;1m[Board] [0m  -------------------
[32;1m[Board] [0m    a b c d e f g h
[32;1m[Board] [0m
[32;1m[Referee] [0mThis is the turn of the White player...
Input file: championship/lizzie-iii-check-innit-mate/history.csv
Output file: championship/lizzie-iii-check-innit-mate/move.csv
Turn of: white
Succesful move
b2b4
8 | R N B Q K B N R 
7 | P P P P P P P P 
6 | _ _ _ _ _ _ _ _ 
5 | _ _ _ _ _ _ _ _ 
4 | _ P _ _ _ _ _ _ 
3 | _ _ _ _ _ _ _ _ 
2 | P _ P P P P P P 
1 | R N B Q K B N R 
-------------------
  | A B C D E F G H 

Turn of: black
Succesful move
g7g5
8 | R N B Q K B N R 
7 | P P P P P P _ P 
6 | _ _ _ _ _ _ _ _ 
5 | _ _ _ _ _ _ P _ 
4 | _ P _ _ _ _ _ _ 
3 | _ _ _ _ _ _ _ _ 
2 | P _ P P P P P P 
1 | R N B Q K B N R 
-------------------
  | A B C D E F G H 

Turn of: white
Succesful move
f2f4
8 | R N B Q K B N R 
7 | P P P P P P _ P 
6 | _ _ _ _ _ _ _ _ 
5 | _ _ _ _ _ _ P _ 
4 | _ P _ _ _ P _ _ 
3 | _ _ _ _ _ _ _ _ 
2 | P _ P P P _ P P 
1 | R N B Q K B N R 
-------------------
  | A B C D E F G H 

Turn of: black
Succesful move
b7b6
8 | R N B Q K B N R 
7 | P _ P P P P _ P 
6 | _ P _ _ _ _ _ _ 
5 | _ _ _ _ _ _ P _ 
4 | _ P _ _ _ P _ _ 
3 | _ _ _ _ _ _ _ _ 
2 | P _ P P P _ P P 
1 | R N B Q K B N R 
-------------------
  | A B C D E F G H 

Turn of: white
Succesful move
a2a3
8 | R N B Q K B N R 
7 | P _ P P P P _ P 
6 | _ P _ _ _ _ _ _ 
5 | _ _ _ _ _ _ P _ 
4 | _ P _ _ _ P _ _ 
3 | P _ _ _ _ _ _ _ 
2 | _ _ P P P _ P P 
1 | R N B Q K B N R 
-------------------
  | A B C D E F G H 

Turn of: black
Succesful move
c8a6
8 | R N _ Q K B N R 
7 | P _ P P P P _ P 
6 | B P _ _ _ _ _ _ 
5 | _ _ _ _ _ _ P _ 
4 | _ P _ _ _ P _ _ 
3 | P _ _ _ _ _ _ _ 
2 | _ _ P P P _ P P 
1 | R N B Q K B N R 
-------------------
  | A B C D E F G H 

Turn of: white
Succesful move
h2h3
8 | R N _ Q K B N R 
7 | P _ P P P P _ P 
6 | B P _ _ _ _ _ _ 
5 | _ _ _ _ _ _ P _ 
4 | _ P _ _ _ P _ _ 
3 | P _ _ _ _ _ _ P 
2 | _ _ P P P _ P _ 
1 | R N B Q K B N R 
-------------------
  | A B C D E F G H 

Turn of: black
Succesful move
g5g4
8 | R N _ Q K B N R 
7 | P _ P P P P _ P 
6 | B P _ _ _ _ _ _ 
5 | _ _ _ _ _ _ _ _ 
4 | _ P _ _ _ P P _ 
3 | P _ _ _ _ _ _ P 
2 | _ _ P P P _ P _ 
1 | R N B Q K B N R 
-------------------
  | A B C D E F G H 

Turn of: white
Succesful move
h3h4
8 | R N _ Q K B N R 
7 | P _ P P P P _ P 
6 | B P _ _ _ _ _ _ 
5 | _ _ _ _ _ _ _ _ 
4 | _ P _ _ _ P P P 
3 | P _ _ _ _ _ _ _ 
2 | _ _ P P P _ P _ 
1 | R N B Q K B N R 
-------------------
  | A B C D E F G H 

Turn of: black
Succesful move
e7e6
8 | R N _ Q K B N R 
7 | P _ P P _ P _ P 
6 | B P _ _ P _ _ _ 
5 | _ _ _ _ _ _ _ _ 
4 | _ P _ _ _ P P P 
3 | P _ _ _ _ _ _ _ 
2 | _ _ P P P _ P _ 
1 | R N B Q K B N R 
-------------------
  | A B C D E F G H 

Turn of: white
Succesful move
c2c3
8 | R N _ Q K B N R 
7 | P _ P P _ P _ P 
6 | B P _ _ P _ _ _ 
5 | _ _ _ _ _ _ _ _ 
4 | _ P _ _ _ P P P 
3 | P _ P _ _ _ _ _ 
2 | _ _ _ P P _ P _ 
1 | R N B Q K B N R 
-------------------
  | A B C D E F G H 

Turn of: black
Succesful move
a6b5
8 | R N _ Q K B N R 
7 | P _ P P _ P _ P 
6 | _ P _ _ P _ _ _ 
5 | _ B _ _ _ _ _ _ 
4 | _ P _ _ _ P P P 
3 | P _ P _ _ _ _ _ 
2 | _ _ _ P P _ P _ 
1 | R N B Q K B N R 
-------------------
  | A B C D E F G H 

Turn of: white
Succesful move
e2e4
8 | R N _ Q K B N R 
7 | P _ P P _ P _ P 
6 | _ P _ _ P _ _ _ 
5 | _ B _ _ _ _ _ _ 
4 | _ P _ _ P P P P 
3 | P _ P _ _ _ _ _ 
2 | _ _ _ P _ _ P _ 
1 | R N B Q K B N R 
-------------------
  | A B C D E F G H 

Turn of: black
Succesful move
b5c4
8 | R N _ Q K B N R 
7 | P _ P P _ P _ P 
6 | _ P _ _ P _ _ _ 
5 | _ _ _ _ _ _ _ _ 
4 | _ P B _ P P P P 
3 | P _ P _ _ _ _ _ 
2 | _ _ _ P _ _ P _ 
1 | R N B Q K B N R 
-------------------
  | A B C D E F G H 

We are playing as White
Move history:
b2b4
g7g5
f2f4
b7b6
a2a3
c8a6
h2h3
g5g4
h3h4
e7e6
c2c3
a6b5
e2e4
b5c4
8 | R N _ Q K B N R 
7 | P _ P P _ P _ P 
6 | _ P _ _ P _ _ _ 
5 | _ _ _ _ _ _ _ _ 
4 | _ P B _ P P P P 
3 | P _ P _ _ _ _ _ 
2 | _ _ _ P _ _ P _ 
1 | R N B Q K B N R 
-------------------
  | A B C D E F G H 

It is white's turn to play.
AI's move: g2g3
Move written: g2g3
[32;1m[Game] [0mPlayer's error code: 0
[32;1m[Game] [0mChecking move validity...
[32;1m[Board] [0mInitializing board...
[32;1m[Board] [0mLoading history file `championship/lizzie-iii-check-innit-mate/history.csv`...
[32;1m[Board] [0mLoaded 14 move(s).
[32;1m[Board] [0mLoading move file `championship/lizzie-iii-check-innit-mate/move.csv`...
[32;1m[Board] [0mWhite player is playing g2 to g3.
[32;1m[Board] [0m
[32;1m[Board] [0m    a b c d e f g h 
[32;1m[Board] [0m  -------------------
[32;1m[Board] [0m8 ||[30;1mr[0m|[30;1mk[0m|[7;1m [0m|[30;1mQ[0m|[30;1mK[0m|[30;1mb[0m|[30;1mk[0m|[30;1mr[0m|| 8
[32;1m[Board] [0m  -------------------
[32;1m[Board] [0m7 ||[30;1mp[0m|[7;1m [0m|[30;1mp[0m|[30;1mp[0m| |[30;1mp[0m| |[30;1mp[0m|| 7
[32;1m[Board] [0m  -------------------
[32;1m[Board] [0m6 ||[7;1m [0m|[30;1mp[0m|[7;1m [0m| |[30;1mp[0m| |[7;1m [0m| || 6
[32;1m[Board] [0m  -------------------
[32;1m[Board] [0m5 || |[7;1m [0m| |[7;1m [0m| |[7;1m [0m| |[7;1m [0m|| 5
[32;1m[Board] [0m  -------------------
[32;1m[Board] [0m4 ||[7;1m [0m|[0;1mp[0m|[30;1mb[0m| |[0;1mp[0m|[0;1mp[0m|[30;1mp[0m|[0;1mp[0m|| 4
[32;1m[Board] [0m  -------------------
[32;1m[Board] [0m3 ||[0;1mp[0m|[7;1m [0m|[0;1mp[0m|[7;1m [0m| |[7;1m [0m|[0;1mp[0m|[7;1m [0m|| 3
[32;1m[Board] [0m  -------------------
[32;1m[Board] [0m2 ||[7;1m [0m| |[7;1m [0m|[0;1mp[0m|[7;1m [0m| |[7;1m [0m| || 2
[32;1m[Board] [0m  -------------------
[32;1m[Board] [0m1 ||[0;1mr[0m|[0;1mk[0m|[0;1mb[0m|[0;1mQ[0m|[0;1mK[0m|[0;1mb[0m|[0;1mk[0m|[0;1mr[0m|| 1
[32;1m[Board] [0m  -------------------
[32;1m[Board] [0m    a b c d e f g h
[32;1m[Board] [0m
[32;1m[Referee] [0mThis is the turn of the Black player...
0 0 - 0 0 0 0 0 
0 - 0 0 - 0 - 0 
- 0 - - 0 - - - 
- - - - - - - - 
- 1 0 - 1 1 0 1 
1 - 1 - - - 1 - 
- - - 1 - - - - 
1 1 1 1 1 1 1 1 
--------
looking for king 0, 0Rook
0
looking for king 0, 1Knight
0
looking for king 0, 2Bishop
0
looking for king 0, 3Queen
0
looking for king 0, 4King
1
looking for king 0, 5Bishop
0
looking for king 0, 6Knight
0
looking for king 0, 7Rook
0
looking for king 1, 3Pawn
0
looking for king 2, 0Pawn
0
looking for king 2, 2Pawn
0
looking for king 2, 6Pawn
0
looking for king 3, 1Pawn
0
looking for king 3, 2Bishop
0
looking for king 3, 4Pawn
0
looking for king 3, 5Pawn
0
looking for king 3, 6Pawn
0
looking for king 3, 7Pawn
0
looking for king 5, 1Pawn
0
looking for king 5, 4Pawn
0
looking for king 6, 0Pawn
0
looking for king 6, 2Pawn
0
looking for king 6, 3Pawn
0
looking for king 6, 5Pawn
0
looking for king 6, 7Pawn
0
looking for king 7, 0Rook
0
looking for king 7, 1Knight
0
looking for king 7, 3Queen
0
looking for king 7, 4King
1
From (3, 2) to (4, 3)
From (3, 2) to (4, 1)
From (3, 2) to (5, 0)
From (3, 2) to (2, 3)
From (3, 2) to (1, 4)
From (3, 2) to (0, 5)
From (3, 2) to (2, 1)
From (3, 2) to (1, 0)
From (5, 1) to (4, 1)
From (5, 4) to (4, 4)
From (6, 0) to (5, 0)
From (6, 0) to (4, 0)
From (6, 2) to (5, 2)
From (6, 2) to (4, 2)
From (6, 3) to (5, 3)
From (6, 3) to (4, 3)
From (6, 5) to (5, 5)
From (6, 5) to (4, 5)
From (6, 7) to (5, 7)
From (6, 7) to (4, 7)
From (7, 1) to (5, 2)
From (7, 1) to (5, 0)
From (7, 3) to (6, 4)
From (7, 3) to (5, 5)
From (7, 3) to (4, 6)
From (7, 3) to (3, 7)
From (7, 3) to (7, 2)
From (7, 4) to (6, 4)
From (7, 5) to (6, 6)
From (7, 5) to (5, 7)
From (7, 5) to (6, 4)
From (7, 5) to (5, 3)
From (7, 5) to (4, 2)
From (7, 5) to (3, 1)
From (7, 6) to (5, 7)
From (7, 6) to (5, 5)
From (7, 6) to (6, 4)
[32;1m[Game] [0mPlayer's error code: 0
[32;1m[Game] [0mChecking move validity...
[32;1m[Board] [0mInitializing board...
[32;1m[Board] [0mLoading history file `championship/lizzie-iii-check-innit-mate/history.csv`...
[32;1m[Board] [0mLoaded 15 move(s).
[32;1m[Board] [0mLoading move file `championship/lizzie-iii-check-innit-mate/move.csv`...
[32;1m[Board] [0mBlack player is playing g8 to f6.
[32;1m[Board] [0m
[32;1m[Board] [0m    a b c d e f g h 
[32;1m[Board] [0m  -------------------
[32;1m[Board] [0m8 ||[30;1mr[0m|[30;1mk[0m|[7;1m [0m|[30;1mQ[0m|[30;1mK[0m|[30;1mb[0m|[7;1m [0m|[30;1mr[0m|| 8
[32;1m[Board] [0m  -------------------
[32;1m[Board] [0m7 ||[30;1mp[0m|[7;1m [0m|[30;1mp[0m|[30;1mp[0m| |[30;1mp[0m| |[30;1mp[0m|| 7
[32;1m[Board] [0m  -------------------
[32;1m[Board] [0m6 ||[7;1m [0m|[30;1mp[0m|[7;1m [0m| |[30;1mp[0m|[30;1mk[0m|[7;1m [0m| || 6
[32;1m[Board] [0m  -------------------
[32;1m[Board] [0m5 || |[7;1m [0m| |[7;1m [0m| |[7;1m [0m| |[7;1m [0m|| 5
[32;1m[Board] [0m  -------------------
[32;1m[Board] [0m4 ||[7;1m [0m|[0;1mp[0m|[30;1mb[0m| |[0;1mp[0m|[0;1mp[0m|[30;1mp[0m|[0;1mp[0m|| 4
[32;1m[Board] [0m  -------------------
[32;1m[Board] [0m3 ||[0;1mp[0m|[7;1m [0m|[0;1mp[0m|[7;1m [0m| |[7;1m [0m|[0;1mp[0m|[7;1m [0m|| 3
[32;1m[Board] [0m  -------------------
[32;1m[Board] [0m2 ||[7;1m [0m| |[7;1m [0m|[0;1mp[0m|[7;1m [0m| |[7;1m [0m| || 2
[32;1m[Board] [0m  -------------------
[32;1m[Board] [0m1 ||[0;1mr[0m|[0;1mk[0m|[0;1mb[0m|[0;1mQ[0m|[0;1mK[0m|[0;1mb[0m|[0;1mk[0m|[0;1mr[0m|| 1
[32;1m[Board] [0m  -------------------
[32;1m[Board] [0m    a b c d e f g h
[32;1m[Board] [0m
[32;1m[Referee] [0mThis is the turn of the White player...
Input file: championship/lizzie-iii-check-innit-mate/history.csv
Output file: championship/lizzie-iii-check-innit-mate/move.csv
Turn of: white
Succesful move
b2b4
8 | R N B Q K B N R 
7 | P P P P P P P P 
6 | _ _ _ _ _ _ _ _ 
5 | _ _ _ _ _ _ _ _ 
4 | _ P _ _ _ _ _ _ 
3 | _ _ _ _ _ _ _ _ 
2 | P _ P P P P P P 
1 | R N B Q K B N R 
-------------------
  | A B C D E F G H 

Turn of: black
Succesful move
g7g5
8 | R N B Q K B N R 
7 | P P P P P P _ P 
6 | _ _ _ _ _ _ _ _ 
5 | _ _ _ _ _ _ P _ 
4 | _ P _ _ _ _ _ _ 
3 | _ _ _ _ _ _ _ _ 
2 | P _ P P P P P P 
1 | R N B Q K B N R 
-------------------
  | A B C D E F G H 

Turn of: white
Succesful move
f2f4
8 | R N B Q K B N R 
7 | P P P P P P _ P 
6 | _ _ _ _ _ _ _ _ 
5 | _ _ _ _ _ _ P _ 
4 | _ P _ _ _ P _ _ 
3 | _ _ _ _ _ _ _ _ 
2 | P _ P P P _ P P 
1 | R N B Q K B N R 
-------------------
  | A B C D E F G H 

Turn of: black
Succesful move
b7b6
8 | R N B Q K B N R 
7 | P _ P P P P _ P 
6 | _ P _ _ _ _ _ _ 
5 | _ _ _ _ _ _ P _ 
4 | _ P _ _ _ P _ _ 
3 | _ _ _ _ _ _ _ _ 
2 | P _ P P P _ P P 
1 | R N B Q K B N R 
-------------------
  | A B C D E F G H 

Turn of: white
Succesful move
a2a3
8 | R N B Q K B N R 
7 | P _ P P P P _ P 
6 | _ P _ _ _ _ _ _ 
5 | _ _ _ _ _ _ P _ 
4 | _ P _ _ _ P _ _ 
3 | P _ _ _ _ _ _ _ 
2 | _ _ P P P _ P P 
1 | R N B Q K B N R 
-------------------
  | A B C D E F G H 

Turn of: black
Succesful move
c8a6
8 | R N _ Q K B N R 
7 | P _ P P P P _ P 
6 | B P _ _ _ _ _ _ 
5 | _ _ _ _ _ _ P _ 
4 | _ P _ _ _ P _ _ 
3 | P _ _ _ _ _ _ _ 
2 | _ _ P P P _ P P 
1 | R N B Q K B N R 
-------------------
  | A B C D E F G H 

Turn of: white
Succesful move
h2h3
8 | R N _ Q K B N R 
7 | P _ P P P P _ P 
6 | B P _ _ _ _ _ _ 
5 | _ _ _ _ _ _ P _ 
4 | _ P _ _ _ P _ _ 
3 | P _ _ _ _ _ _ P 
2 | _ _ P P P _ P _ 
1 | R N B Q K B N R 
-------------------
  | A B C D E F G H 

Turn of: black
Succesful move
g5g4
8 | R N _ Q K B N R 
7 | P _ P P P P _ P 
6 | B P _ _ _ _ _ _ 
5 | _ _ _ _ _ _ _ _ 
4 | _ P _ _ _ P P _ 
3 | P _ _ _ _ _ _ P 
2 | _ _ P P P _ P _ 
1 | R N B Q K B N R 
-------------------
  | A B C D E F G H 

Turn of: white
Succesful move
h3h4
8 | R N _ Q K B N R 
7 | P _ P P P P _ P 
6 | B P _ _ _ _ _ _ 
5 | _ _ _ _ _ _ _ _ 
4 | _ P _ _ _ P P P 
3 | P _ _ _ _ _ _ _ 
2 | _ _ P P P _ P _ 
1 | R N B Q K B N R 
-------------------
  | A B C D E F G H 

Turn of: black
Succesful move
e7e6
8 | R N _ Q K B N R 
7 | P _ P P _ P _ P 
6 | B P _ _ P _ _ _ 
5 | _ _ _ _ _ _ _ _ 
4 | _ P _ _ _ P P P 
3 | P _ _ _ _ _ _ _ 
2 | _ _ P P P _ P _ 
1 | R N B Q K B N R 
-------------------
  | A B C D E F G H 

Turn of: white
Succesful move
c2c3
8 | R N _ Q K B N R 
7 | P _ P P _ P _ P 
6 | B P _ _ P _ _ _ 
5 | _ _ _ _ _ _ _ _ 
4 | _ P _ _ _ P P P 
3 | P _ P _ _ _ _ _ 
2 | _ _ _ P P _ P _ 
1 | R N B Q K B N R 
-------------------
  | A B C D E F G H 

Turn of: black
Succesful move
a6b5
8 | R N _ Q K B N R 
7 | P _ P P _ P _ P 
6 | _ P _ _ P _ _ _ 
5 | _ B _ _ _ _ _ _ 
4 | _ P _ _ _ P P P 
3 | P _ P _ _ _ _ _ 
2 | _ _ _ P P _ P _ 
1 | R N B Q K B N R 
-------------------
  | A B C D E F G H 

Turn of: white
Succesful move
e2e4
8 | R N _ Q K B N R 
7 | P _ P P _ P _ P 
6 | _ P _ _ P _ _ _ 
5 | _ B _ _ _ _ _ _ 
4 | _ P _ _ P P P P 
3 | P _ P _ _ _ _ _ 
2 | _ _ _ P _ _ P _ 
1 | R N B Q K B N R 
-------------------
  | A B C D E F G H 

Turn of: black
Succesful move
b5c4
8 | R N _ Q K B N R 
7 | P _ P P _ P _ P 
6 | _ P _ _ P _ _ _ 
5 | _ _ _ _ _ _ _ _ 
4 | _ P B _ P P P P 
3 | P _ P _ _ _ _ _ 
2 | _ _ _ P _ _ P _ 
1 | R N B Q K B N R 
-------------------
  | A B C D E F G H 

Turn of: white
Succesful move
g2g3
8 | R N _ Q K B N R 
7 | P _ P P _ P _ P 
6 | _ P _ _ P _ _ _ 
5 | _ _ _ _ _ _ _ _ 
4 | _ P B _ P P P P 
3 | P _ P _ _ _ P _ 
2 | _ _ _ P _ _ _ _ 
1 | R N B Q K B N R 
-------------------
  | A B C D E F G H 

Turn of: black
Succesful move
g8f6
8 | R N _ Q K B _ R 
7 | P _ P P _ P _ P 
6 | _ P _ _ P N _ _ 
5 | _ _ _ _ _ _ _ _ 
4 | _ P B _ P P P P 
3 | P _ P _ _ _ P _ 
2 | _ _ _ P _ _ _ _ 
1 | R N B Q K B N R 
-------------------
  | A B C D E F G H 

We are playing as White
Move history:
b2b4
g7g5
f2f4
b7b6
a2a3
c8a6
h2h3
g5g4
h3h4
e7e6
c2c3
a6b5
e2e4
b5c4
g2g3
g8f6
8 | R N _ Q K B _ R 
7 | P _ P P _ P _ P 
6 | _ P _ _ P N _ _ 
5 | _ _ _ _ _ _ _ _ 
4 | _ P B _ P P P P 
3 | P _ P _ _ _ P _ 
2 | _ _ _ P _ _ _ _ 
1 | R N B Q K B N R 
-------------------
  | A B C D E F G H 

It is white's turn to play.
AI's move: d2d3
Move written: d2d3
[32;1m[Game] [0mPlayer's error code: 0
[32;1m[Game] [0mChecking move validity...
[32;1m[Board] [0mInitializing board...
[32;1m[Board] [0mLoading history file `championship/lizzie-iii-check-innit-mate/history.csv`...
[32;1m[Board] [0mLoaded 16 move(s).
[32;1m[Board] [0mLoading move file `championship/lizzie-iii-check-innit-mate/move.csv`...
[32;1m[Board] [0mWhite player is playing d2 to d3.
[32;1m[Board] [0m
[32;1m[Board] [0m    a b c d e f g h 
[32;1m[Board] [0m  -------------------
[32;1m[Board] [0m8 ||[30;1mr[0m|[30;1mk[0m|[7;1m [0m|[30;1mQ[0m|[30;1mK[0m|[30;1mb[0m|[7;1m [0m|[30;1mr[0m|| 8
[32;1m[Board] [0m  -------------------
[32;1m[Board] [0m7 ||[30;1mp[0m|[7;1m [0m|[30;1mp[0m|[30;1mp[0m| |[30;1mp[0m| |[30;1mp[0m|| 7
[32;1m[Board] [0m  -------------------
[32;1m[Board] [0m6 ||[7;1m [0m|[30;1mp[0m|[7;1m [0m| |[30;1mp[0m|[30;1mk[0m|[7;1m [0m| || 6
[32;1m[Board] [0m  -------------------
[32;1m[Board] [0m5 || |[7;1m [0m| |[7;1m [0m| |[7;1m [0m| |[7;1m [0m|| 5
[32;1m[Board] [0m  -------------------
[32;1m[Board] [0m4 ||[7;1m [0m|[0;1mp[0m|[30;1mb[0m| |[0;1mp[0m|[0;1mp[0m|[30;1mp[0m|[0;1mp[0m|| 4
[32;1m[Board] [0m  -------------------
[32;1m[Board] [0m3 ||[0;1mp[0m|[7;1m [0m|[0;1mp[0m|[0;1mp[0m| |[7;1m [0m|[0;1mp[0m|[7;1m [0m|| 3
[32;1m[Board] [0m  -------------------
[32;1m[Board] [0m2 ||[7;1m [0m| |[7;1m [0m| |[7;1m [0m| |[7;1m [0m| || 2
[32;1m[Board] [0m  -------------------
[32;1m[Board] [0m1 ||[0;1mr[0m|[0;1mk[0m|[0;1mb[0m|[0;1mQ[0m|[0;1mK[0m|[0;1mb[0m|[0;1mk[0m|[0;1mr[0m|| 1
[32;1m[Board] [0m  -------------------
[32;1m[Board] [0m    a b c d e f g h
[32;1m[Board] [0m
[32;1m[Referee] [0mThis is the turn of the Black player...
0 0 - 0 0 0 - 0 
0 - 0 0 - 0 - 0 
- 0 - - 0 0 - - 
- - - - - - - - 
- 1 0 - 1 1 0 1 
1 - 1 1 - - 1 - 
- - - - - - - - 
1 1 1 1 1 1 1 1 
--------
looking for king 0, 0Rook
0
looking for king 0, 1Knight
0
looking for king 0, 2Bishop
0
looking for king 0, 3Queen
0
looking for king 0, 4King
1
looking for king 0, 5Bishop
0
looking for king 0, 6Knight
0
looking for king 0, 7Rook
0
looking for king 2, 0Pawn
0
looking for king 2, 2Pawn
0
looking for king 2, 3Pawn
0
looking for king 2, 6Pawn
0
looking for king 3, 1Pawn
0
looking for king 3, 2Bishop
0
looking for king 3, 4Pawn
0
looking for king 3, 5Pawn
0
looking for king 3, 6Pawn
0
looking for king 3, 7Pawn
0
looking for king 5, 1Pawn
0
looking for king 5, 4Pawn
0
looking for king 5, 5Knight
0
looking for king 6, 0Pawn
0
looking for king 6, 2Pawn
0
looking for king 6, 3Pawn
0
looking for king 6, 5Pawn
0
looking for king 6, 7Pawn
0
looking for king 7, 0Rook
0
looking for king 7, 1Knight
0
looking for king 7, 3Queen
0
looking for king 7, 4King
1
From (3, 2) to (4, 3)
From (3, 2) to (4, 1)
From (3, 2) to (5, 0)
From (3, 2) to (2, 3)
From (3, 2) to (2, 1)
From (3, 2) to (1, 0)
From (5, 1) to (4, 1)
From (5, 4) to (4, 4)
From (5, 5) to (7, 6)
From (5, 5) to (3, 4)
From (5, 5) to (4, 7)
From (5, 5) to (4, 3)
From (6, 0) to (5, 0)
From (6, 0) to (4, 0)
From (6, 2) to (5, 2)
From (6, 2) to (4, 2)
From (6, 3) to (5, 3)
From (6, 3) to (4, 3)
From (6, 7) to (5, 7)
From (6, 7) to (4, 7)
From (7, 1) to (5, 2)
From (7, 1) to (5, 0)
From (7, 3) to (6, 4)
From (7, 3) to (7, 2)
From (7, 4) to (6, 4)
From (7, 5) to (6, 6)
From (7, 5) to (5, 7)
From (7, 5) to (6, 4)
From (7, 5) to (5, 3)
From (7, 5) to (4, 2)
From (7, 5) to (3, 1)
From (7, 7) to (7, 6)
[32;1m[Game] [0mPlayer's error code: 0
[32;1m[Game] [0mChecking move validity...
[32;1m[Board] [0mInitializing board...
[32;1m[Board] [0mLoading history file `championship/lizzie-iii-check-innit-mate/history.csv`...
[32;1m[Board] [0mLoaded 17 move(s).
[32;1m[Board] [0mLoading move file `championship/lizzie-iii-check-innit-mate/move.csv`...
[32;1m[Board] [0mBlack player is playing b6 to b5.
[32;1m[Board] [0m
[32;1m[Board] [0m    a b c d e f g h 
[32;1m[Board] [0m  -------------------
[32;1m[Board] [0m8 ||[30;1mr[0m|[30;1mk[0m|[7;1m [0m|[30;1mQ[0m|[30;1mK[0m|[30;1mb[0m|[7;1m [0m|[30;1mr[0m|| 8
[32;1m[Board] [0m  -------------------
[32;1m[Board] [0m7 ||[30;1mp[0m|[7;1m [0m|[30;1mp[0m|[30;1mp[0m| |[30;1mp[0m| |[30;1mp[0m|| 7
[32;1m[Board] [0m  -------------------
[32;1m[Board] [0m6 ||[7;1m [0m| |[7;1m [0m| |[30;1mp[0m|[30;1mk[0m|[7;1m [0m| || 6
[32;1m[Board] [0m  -------------------
[32;1m[Board] [0m5 || |[30;1mp[0m| |[7;1m [0m| |[7;1m [0m| |[7;1m [0m|| 5
[32;1m[Board] [0m  -------------------
[32;1m[Board] [0m4 ||[7;1m [0m|[0;1mp[0m|[30;1mb[0m| |[0;1mp[0m|[0;1mp[0m|[30;1mp[0m|[0;1mp[0m|| 4
[32;1m[Board] [0m  -------------------
[32;1m[Board] [0m3 ||[0;1mp[0m|[7;1m [0m|[0;1mp[0m|[0;1mp[0m| |[7;1m [0m|[0;1mp[0m|[7;1m [0m|| 3
[32;1m[Board] [0m  -------------------
[32;1m[Board] [0m2 ||[7;1m [0m| |[7;1m [0m| |[7;1m [0m| |[7;1m [0m| || 2
[32;1m[Board] [0m  -------------------
[32;1m[Board] [0m1 ||[0;1mr[0m|[0;1mk[0m|[0;1mb[0m|[0;1mQ[0m|[0;1mK[0m|[0;1mb[0m|[0;1mk[0m|[0;1mr[0m|| 1
[32;1m[Board] [0m  -------------------
[32;1m[Board] [0m    a b c d e f g h
[32;1m[Board] [0m
[32;1m[Referee] [0mThis is the turn of the White player...
Input file: championship/lizzie-iii-check-innit-mate/history.csv
Output file: championship/lizzie-iii-check-innit-mate/move.csv
Turn of: white
Succesful move
b2b4
8 | R N B Q K B N R 
7 | P P P P P P P P 
6 | _ _ _ _ _ _ _ _ 
5 | _ _ _ _ _ _ _ _ 
4 | _ P _ _ _ _ _ _ 
3 | _ _ _ _ _ _ _ _ 
2 | P _ P P P P P P 
1 | R N B Q K B N R 
-------------------
  | A B C D E F G H 

Turn of: black
Succesful move
g7g5
8 | R N B Q K B N R 
7 | P P P P P P _ P 
6 | _ _ _ _ _ _ _ _ 
5 | _ _ _ _ _ _ P _ 
4 | _ P _ _ _ _ _ _ 
3 | _ _ _ _ _ _ _ _ 
2 | P _ P P P P P P 
1 | R N B Q K B N R 
-------------------
  | A B C D E F G H 

Turn of: white
Succesful move
f2f4
8 | R N B Q K B N R 
7 | P P P P P P _ P 
6 | _ _ _ _ _ _ _ _ 
5 | _ _ _ _ _ _ P _ 
4 | _ P _ _ _ P _ _ 
3 | _ _ _ _ _ _ _ _ 
2 | P _ P P P _ P P 
1 | R N B Q K B N R 
-------------------
  | A B C D E F G H 

Turn of: black
Succesful move
b7b6
8 | R N B Q K B N R 
7 | P _ P P P P _ P 
6 | _ P _ _ _ _ _ _ 
5 | _ _ _ _ _ _ P _ 
4 | _ P _ _ _ P _ _ 
3 | _ _ _ _ _ _ _ _ 
2 | P _ P P P _ P P 
1 | R N B Q K B N R 
-------------------
  | A B C D E F G H 

Turn of: white
Succesful move
a2a3
8 | R N B Q K B N R 
7 | P _ P P P P _ P 
6 | _ P _ _ _ _ _ _ 
5 | _ _ _ _ _ _ P _ 
4 | _ P _ _ _ P _ _ 
3 | P _ _ _ _ _ _ _ 
2 | _ _ P P P _ P P 
1 | R N B Q K B N R 
-------------------
  | A B C D E F G H 

Turn of: black
Succesful move
c8a6
8 | R N _ Q K B N R 
7 | P _ P P P P _ P 
6 | B P _ _ _ _ _ _ 
5 | _ _ _ _ _ _ P _ 
4 | _ P _ _ _ P _ _ 
3 | P _ _ _ _ _ _ _ 
2 | _ _ P P P _ P P 
1 | R N B Q K B N R 
-------------------
  | A B C D E F G H 

Turn of: white
Succesful move
h2h3
8 | R N _ Q K B N R 
7 | P _ P P P P _ P 
6 | B P _ _ _ _ _ _ 
5 | _ _ _ _ _ _ P _ 
4 | _ P _ _ _ P _ _ 
3 | P _ _ _ _ _ _ P 
2 | _ _ P P P _ P _ 
1 | R N B Q K B N R 
-------------------
  | A B C D E F G H 

Turn of: black
Succesful move
g5g4
8 | R N _ Q K B N R 
7 | P _ P P P P _ P 
6 | B P _ _ _ _ _ _ 
5 | _ _ _ _ _ _ _ _ 
4 | _ P _ _ _ P P _ 
3 | P _ _ _ _ _ _ P 
2 | _ _ P P P _ P _ 
1 | R N B Q K B N R 
-------------------
  | A B C D E F G H 

Turn of: white
Succesful move
h3h4
8 | R N _ Q K B N R 
7 | P _ P P P P _ P 
6 | B P _ _ _ _ _ _ 
5 | _ _ _ _ _ _ _ _ 
4 | _ P _ _ _ P P P 
3 | P _ _ _ _ _ _ _ 
2 | _ _ P P P _ P _ 
1 | R N B Q K B N R 
-------------------
  | A B C D E F G H 

Turn of: black
Succesful move
e7e6
8 | R N _ Q K B N R 
7 | P _ P P _ P _ P 
6 | B P _ _ P _ _ _ 
5 | _ _ _ _ _ _ _ _ 
4 | _ P _ _ _ P P P 
3 | P _ _ _ _ _ _ _ 
2 | _ _ P P P _ P _ 
1 | R N B Q K B N R 
-------------------
  | A B C D E F G H 

Turn of: white
Succesful move
c2c3
8 | R N _ Q K B N R 
7 | P _ P P _ P _ P 
6 | B P _ _ P _ _ _ 
5 | _ _ _ _ _ _ _ _ 
4 | _ P _ _ _ P P P 
3 | P _ P _ _ _ _ _ 
2 | _ _ _ P P _ P _ 
1 | R N B Q K B N R 
-------------------
  | A B C D E F G H 

Turn of: black
Succesful move
a6b5
8 | R N _ Q K B N R 
7 | P _ P P _ P _ P 
6 | _ P _ _ P _ _ _ 
5 | _ B _ _ _ _ _ _ 
4 | _ P _ _ _ P P P 
3 | P _ P _ _ _ _ _ 
2 | _ _ _ P P _ P _ 
1 | R N B Q K B N R 
-------------------
  | A B C D E F G H 

Turn of: white
Succesful move
e2e4
8 | R N _ Q K B N R 
7 | P _ P P _ P _ P 
6 | _ P _ _ P _ _ _ 
5 | _ B _ _ _ _ _ _ 
4 | _ P _ _ P P P P 
3 | P _ P _ _ _ _ _ 
2 | _ _ _ P _ _ P _ 
1 | R N B Q K B N R 
-------------------
  | A B C D E F G H 

Turn of: black
Succesful move
b5c4
8 | R N _ Q K B N R 
7 | P _ P P _ P _ P 
6 | _ P _ _ P _ _ _ 
5 | _ _ _ _ _ _ _ _ 
4 | _ P B _ P P P P 
3 | P _ P _ _ _ _ _ 
2 | _ _ _ P _ _ P _ 
1 | R N B Q K B N R 
-------------------
  | A B C D E F G H 

Turn of: white
Succesful move
g2g3
8 | R N _ Q K B N R 
7 | P _ P P _ P _ P 
6 | _ P _ _ P _ _ _ 
5 | _ _ _ _ _ _ _ _ 
4 | _ P B _ P P P P 
3 | P _ P _ _ _ P _ 
2 | _ _ _ P _ _ _ _ 
1 | R N B Q K B N R 
-------------------
  | A B C D E F G H 

Turn of: black
Succesful move
g8f6
8 | R N _ Q K B _ R 
7 | P _ P P _ P _ P 
6 | _ P _ _ P N _ _ 
5 | _ _ _ _ _ _ _ _ 
4 | _ P B _ P P P P 
3 | P _ P _ _ _ P _ 
2 | _ _ _ P _ _ _ _ 
1 | R N B Q K B N R 
-------------------
  | A B C D E F G H 

Turn of: white
Succesful move
d2d3
8 | R N _ Q K B _ R 
7 | P _ P P _ P _ P 
6 | _ P _ _ P N _ _ 
5 | _ _ _ _ _ _ _ _ 
4 | _ P B _ P P P P 
3 | P _ P P _ _ P _ 
2 | _ _ _ _ _ _ _ _ 
1 | R N B Q K B N R 
-------------------
  | A B C D E F G H 

Turn of: black
Succesful move
b6b5
8 | R N _ Q K B _ R 
7 | P _ P P _ P _ P 
6 | _ _ _ _ P N _ _ 
5 | _ P _ _ _ _ _ _ 
4 | _ P B _ P P P P 
3 | P _ P P _ _ P _ 
2 | _ _ _ _ _ _ _ _ 
1 | R N B Q K B N R 
-------------------
  | A B C D E F G H 

We are playing as White
Move history:
b2b4
g7g5
f2f4
b7b6
a2a3
c8a6
h2h3
g5g4
h3h4
e7e6
c2c3
a6b5
e2e4
b5c4
g2g3
g8f6
d2d3
b6b5
8 | R N _ Q K B _ R 
7 | P _ P P _ P _ P 
6 | _ _ _ _ P N _ _ 
5 | _ P _ _ _ _ _ _ 
4 | _ P B _ P P P P 
3 | P _ P P _ _ P _ 
2 | _ _ _ _ _ _ _ _ 
1 | R N B Q K B N R 
-------------------
  | A B C D E F G H 

It is white's turn to play.
AI's move: c1b2
Move written: c1b2
[32;1m[Game] [0mPlayer's error code: 0
[32;1m[Game] [0mChecking move validity...
[32;1m[Board] [0mInitializing board...
[32;1m[Board] [0mLoading history file `championship/lizzie-iii-check-innit-mate/history.csv`...
[32;1m[Board] [0mLoaded 18 move(s).
[32;1m[Board] [0mLoading move file `championship/lizzie-iii-check-innit-mate/move.csv`...
[32;1m[Board] [0mWhite player is playing c1 to b2.
[32;1m[Board] [0m
[32;1m[Board] [0m    a b c d e f g h 
[32;1m[Board] [0m  -------------------
[32;1m[Board] [0m8 ||[30;1mr[0m|[30;1mk[0m|[7;1m [0m|[30;1mQ[0m|[30;1mK[0m|[30;1mb[0m|[7;1m [0m|[30;1mr[0m|| 8
[32;1m[Board] [0m  -------------------
[32;1m[Board] [0m7 ||[30;1mp[0m|[7;1m [0m|[30;1mp[0m|[30;1mp[0m| |[30;1mp[0m| |[30;1mp[0m|| 7
[32;1m[Board] [0m  -------------------
[32;1m[Board] [0m6 ||[7;1m [0m| |[7;1m [0m| |[30;1mp[0m|[30;1mk[0m|[7;1m [0m| || 6
[32;1m[Board] [0m  -------------------
[32;1m[Board] [0m5 || |[30;1mp[0m| |[7;1m [0m| |[7;1m [0m| |[7;1m [0m|| 5
[32;1m[Board] [0m  -------------------
[32;1m[Board] [0m4 ||[7;1m [0m|[0;1mp[0m|[30;1mb[0m| |[0;1mp[0m|[0;1mp[0m|[30;1mp[0m|[0;1mp[0m|| 4
[32;1m[Board] [0m  -------------------
[32;1m[Board] [0m3 ||[0;1mp[0m|[7;1m [0m|[0;1mp[0m|[0;1mp[0m| |[7;1m [0m|[0;1mp[0m|[7;1m [0m|| 3
[32;1m[Board] [0m  -------------------
[32;1m[Board] [0m2 ||[7;1m [0m|[0;1mb[0m|[7;1m [0m| |[7;1m [0m| |[7;1m [0m| || 2
[32;1m[Board] [0m  -------------------
[32;1m[Board] [0m1 ||[0;1mr[0m|[0;1mk[0m| |[0;1mQ[0m|[0;1mK[0m|[0;1mb[0m|[0;1mk[0m|[0;1mr[0m|| 1
[32;1m[Board] [0m  -------------------
[32;1m[Board] [0m    a b c d e f g h
[32;1m[Board] [0m
[32;1m[Referee] [0mThis is the turn of the Black player...
0 0 - 0 0 0 - 0 
0 - 0 0 - 0 - 0 
- - - - 0 0 - - 
- 0 - - - - - - 
- 1 0 - 1 1 0 1 
1 - 1 1 - - 1 - 
- 1 - - - - - - 
1 1 - 1 1 1 1 1 
--------
looking for king 0, 0Rook
0
looking for king 0, 1Knight
0
looking for king 0, 3Queen
0
looking for king 0, 4King
1
looking for king 0, 5Bishop
0
looking for king 0, 6Knight
0
looking for king 0, 7Rook
0
looking for king 1, 1Bishop
0
looking for king 2, 0Pawn
0
looking for king 2, 2Pawn
0
looking for king 2, 3Pawn
0
looking for king 2, 6Pawn
0
looking for king 3, 1Pawn
0
looking for king 3, 2Bishop
0
looking for king 3, 4Pawn
0
looking for king 3, 5Pawn
0
looking for king 3, 6Pawn
0
looking for king 3, 7Pawn
0
looking for king 4, 1Pawn
0
looking for king 5, 4Pawn
0
looking for king 5, 5Knight
0
looking for king 6, 0Pawn
0
looking for king 6, 2Pawn
0
looking for king 6, 3Pawn
0
looking for king 6, 5Pawn
0
looking for king 6, 7Pawn
0
looking for king 7, 0Rook
0
looking for king 7, 1Knight
0
looking for king 7, 3Queen
0
looking for king 7, 4King
1
From (3, 2) to (4, 3)
From (3, 2) to (2, 3)
From (3, 2) to (2, 1)
From (3, 2) to (1, 0)
From (5, 4) to (4, 4)
From (5, 5) to (7, 6)
From (5, 5) to (3, 4)
From (5, 5) to (4, 7)
From (5, 5) to (4, 3)
From (6, 0) to (5, 0)
From (6, 0) to (4, 0)
From (6, 2) to (5, 2)
From (6, 2) to (4, 2)
From (6, 3) to (5, 3)
From (6, 3) to (4, 3)
From (6, 7) to (5, 7)
From (6, 7) to (4, 7)
From (7, 1) to (5, 2)
From (7, 1) to (5, 0)
From (7, 3) to (6, 4)
From (7, 3) to (7, 2)
From (7, 4) to (6, 4)
From (7, 5) to (6, 6)
From (7, 5) to (5, 7)
From (7, 5) to (6, 4)
From (7, 5) to (5, 3)
From (7, 5) to (4, 2)
From (7, 5) to (3, 1)
From (7, 7) to (7, 6)
[32;1m[Game] [0mPlayer's error code: 0
[32;1m[Game] [0mChecking move validity...
[32;1m[Board] [0mInitializing board...
[32;1m[Board] [0mLoading history file `championship/lizzie-iii-check-innit-mate/history.csv`...
[32;1m[Board] [0mLoaded 19 move(s).
[32;1m[Board] [0mLoading move file `championship/lizzie-iii-check-innit-mate/move.csv`...
[32;1m[Board] [0mBlack player is playing f6 to d5.
[32;1m[Board] [0m
[32;1m[Board] [0m    a b c d e f g h 
[32;1m[Board] [0m  -------------------
[32;1m[Board] [0m8 ||[30;1mr[0m|[30;1mk[0m|[7;1m [0m|[30;1mQ[0m|[30;1mK[0m|[30;1mb[0m|[7;1m [0m|[30;1mr[0m|| 8
[32;1m[Board] [0m  -------------------
[32;1m[Board] [0m7 ||[30;1mp[0m|[7;1m [0m|[30;1mp[0m|[30;1mp[0m| |[30;1mp[0m| |[30;1mp[0m|| 7
[32;1m[Board] [0m  -------------------
[32;1m[Board] [0m6 ||[7;1m [0m| |[7;1m [0m| |[30;1mp[0m| |[7;1m [0m| || 6
[32;1m[Board] [0m  -------------------
[32;1m[Board] [0m5 || |[30;1mp[0m| |[30;1mk[0m| |[7;1m [0m| |[7;1m [0m|| 5
[32;1m[Board] [0m  -------------------
[32;1m[Board] [0m4 ||[7;1m [0m|[0;1mp[0m|[30;1mb[0m| |[0;1mp[0m|[0;1mp[0m|[30;1mp[0m|[0;1mp[0m|| 4
[32;1m[Board] [0m  -------------------
[32;1m[Board] [0m3 ||[0;1mp[0m|[7;1m [0m|[0;1mp[0m|[0;1mp[0m| |[7;1m [0m|[0;1mp[0m|[7;1m [0m|| 3
[32;1m[Board] [0m  -------------------
[...]
From (0, 3) to (2, 1)
From (0, 3) to (3, 0)
From (3, 6) to (2, 7)
From (4, 0) to (3, 0)
From (5, 3) to (4, 3)
From (5, 6) to (3, 7)
From (5, 6) to (3, 5)
From (5, 6) to (6, 4)
From (6, 2) to (5, 2)
From (6, 2) to (4, 2)
From (6, 7) to (5, 7)
From (6, 7) to (4, 7)
From (7, 0) to (6, 0)
From (7, 0) to (5, 0)
From (7, 1) to (5, 2)
From (7, 1) to (5, 0)
From (7, 1) to (6, 3)
From (7, 3) to (6, 4)
From (7, 3) to (5, 5)
From (7, 3) to (6, 3)
From (7, 3) to (7, 2)
From (7, 4) to (6, 4)
From (7, 4) to (6, 3)
From (7, 5) to (6, 6)
From (7, 5) to (5, 7)
From (7, 5) to (6, 4)
From (7, 7) to (7, 6)
[32;1m[Game] [0mPlayer's error code: 0
[32;1m[Game] [0mChecking move validity...
[32;1m[Board] [0mInitializing board...
[32;1m[Board] [0mLoading history file `championship/lizzie-iii-check-innit-mate/history.csv`...
[32;1m[Board] [0mLoaded 49 move(s).
[32;1m[Board] [0mLoading move file `championship/lizzie-iii-check-innit-mate/move.csv`...
[32;1m[Board] [0mBlack player is playing a8 to a7.
[32;1m[Board] [0m
[32;1m[Board] [0m    a b c d e f g h 
[32;1m[Board] [0m  -------------------
[32;1m[Board] [0m8 ||[7;1m [0m|[30;1mk[0m|[7;1m [0m|[30;1mQ[0m|[30;1mK[0m|[30;1mb[0m|[7;1m [0m|[30;1mr[0m|| 8
[32;1m[Board] [0m  -------------------
[32;1m[Board] [0m7 ||[30;1mr[0m|[7;1m [0m|[30;1mp[0m|[7;1m [0m| |[30;1mp[0m| |[30;1mp[0m|| 7
[32;1m[Board] [0m  -------------------
[32;1m[Board] [0m6 ||[7;1m [0m| |[7;1m [0m|[30;1mp[0m|[7;1m [0m|[0;1mp[0m|[30;1mk[0m| || 6
[32;1m[Board] [0m  -------------------
[32;1m[Board] [0m5 ||[30;1mp[0m|[0;1mp[0m| |[7;1m [0m|[30;1mp[0m|[7;1m [0m|[0;1mQ[0m|[7;1m [0m|| 5
[32;1m[Board] [0m  -------------------
[32;1m[Board] [0m4 ||[7;1m [0m| |[0;1mb[0m| |[0;1mp[0m| |[30;1mp[0m|[0;1mp[0m|| 4
[32;1m[Board] [0m  -------------------
[32;1m[Board] [0m3 ||[0;1mr[0m|[7;1m [0m|[0;1mp[0m|[7;1m [0m| |[7;1m [0m|[0;1mp[0m|[0;1mk[0m|| 3
[32;1m[Board] [0m  -------------------
[32;1m[Board] [0m2 ||[7;1m [0m|[0;1mb[0m|[7;1m [0m|[0;1mK[0m|[7;1m [0m| |[7;1m [0m| || 2
[32;1m[Board] [0m  -------------------
[32;1m[Board] [0m1 || |[0;1mk[0m| |[30;1mb[0m| |[7;1m [0m| |[0;1mr[0m|| 1
[32;1m[Board] [0m  -------------------
[32;1m[Board] [0m    a b c d e f g h
[32;1m[Board] [0m
[32;1m[Referee] [0mThis is the turn of the White player...
Input file: championship/lizzie-iii-check-innit-mate/history.csv
Output file: championship/lizzie-iii-check-innit-mate/move.csv
Turn of: white
Succesful move
b2b4
8 | R N B Q K B N R 
7 | P P P P P P P P 
6 | _ _ _ _ _ _ _ _ 
5 | _ _ _ _ _ _ _ _ 
4 | _ P _ _ _ _ _ _ 
3 | _ _ _ _ _ _ _ _ 
2 | P _ P P P P P P 
1 | R N B Q K B N R 
-------------------
  | A B C D E F G H 

Turn of: black
Succesful move
g7g5
8 | R N B Q K B N R 
7 | P P P P P P _ P 
6 | _ _ _ _ _ _ _ _ 
5 | _ _ _ _ _ _ P _ 
4 | _ P _ _ _ _ _ _ 
3 | _ _ _ _ _ _ _ _ 
2 | P _ P P P P P P 
1 | R N B Q K B N R 
-------------------
  | A B C D E F G H 

Turn of: white
Succesful move
f2f4
8 | R N B Q K B N R 
7 | P P P P P P _ P 
6 | _ _ _ _ _ _ _ _ 
5 | _ _ _ _ _ _ P _ 
4 | _ P _ _ _ P _ _ 
3 | _ _ _ _ _ _ _ _ 
2 | P _ P P P _ P P 
1 | R N B Q K B N R 
-------------------
  | A B C D E F G H 

Turn of: black
Succesful move
b7b6
8 | R N B Q K B N R 
7 | P _ P P P P _ P 
6 | _ P _ _ _ _ _ _ 
5 | _ _ _ _ _ _ P _ 
4 | _ P _ _ _ P _ _ 
3 | _ _ _ _ _ _ _ _ 
2 | P _ P P P _ P P 
1 | R N B Q K B N R 
-------------------
  | A B C D E F G H 

Turn of: white
Succesful move
a2a3
8 | R N B Q K B N R 
7 | P _ P P P P _ P 
6 | _ P _ _ _ _ _ _ 
5 | _ _ _ _ _ _ P _ 
4 | _ P _ _ _ P _ _ 
3 | P _ _ _ _ _ _ _ 
2 | _ _ P P P _ P P 
1 | R N B Q K B N R 
-------------------
  | A B C D E F G H 

Turn of: black
Succesful move
c8a6
8 | R N _ Q K B N R 
7 | P _ P P P P _ P 
6 | B P _ _ _ _ _ _ 
5 | _ _ _ _ _ _ P _ 
4 | _ P _ _ _ P _ _ 
3 | P _ _ _ _ _ _ _ 
2 | _ _ P P P _ P P 
1 | R N B Q K B N R 
-------------------
  | A B C D E F G H 

Turn of: white
Succesful move
h2h3
8 | R N _ Q K B N R 
7 | P _ P P P P _ P 
6 | B P _ _ _ _ _ _ 
5 | _ _ _ _ _ _ P _ 
4 | _ P _ _ _ P _ _ 
3 | P _ _ _ _ _ _ P 
2 | _ _ P P P _ P _ 
1 | R N B Q K B N R 
-------------------
  | A B C D E F G H 

Turn of: black
Succesful move
g5g4
8 | R N _ Q K B N R 
7 | P _ P P P P _ P 
6 | B P _ _ _ _ _ _ 
5 | _ _ _ _ _ _ _ _ 
4 | _ P _ _ _ P P _ 
3 | P _ _ _ _ _ _ P 
2 | _ _ P P P _ P _ 
1 | R N B Q K B N R 
-------------------
  | A B C D E F G H 

Turn of: white
Succesful move
h3h4
8 | R N _ Q K B N R 
7 | P _ P P P P _ P 
6 | B P _ _ _ _ _ _ 
5 | _ _ _ _ _ _ _ _ 
4 | _ P _ _ _ P P P 
3 | P _ _ _ _ _ _ _ 
2 | _ _ P P P _ P _ 
1 | R N B Q K B N R 
-------------------
  | A B C D E F G H 

Turn of: black
Succesful move
e7e6
8 | R N _ Q K B N R 
7 | P _ P P _ P _ P 
6 | B P _ _ P _ _ _ 
5 | _ _ _ _ _ _ _ _ 
4 | _ P _ _ _ P P P 
3 | P _ _ _ _ _ _ _ 
2 | _ _ P P P _ P _ 
1 | R N B Q K B N R 
-------------------
  | A B C D E F G H 

Turn of: white
Succesful move
c2c3
8 | R N _ Q K B N R 
7 | P _ P P _ P _ P 
6 | B P _ _ P _ _ _ 
5 | _ _ _ _ _ _ _ _ 
4 | _ P _ _ _ P P P 
3 | P _ P _ _ _ _ _ 
2 | _ _ _ P P _ P _ 
1 | R N B Q K B N R 
-------------------
  | A B C D E F G H 

Turn of: black
Succesful move
a6b5
8 | R N _ Q K B N R 
7 | P _ P P _ P _ P 
6 | _ P _ _ P _ _ _ 
5 | _ B _ _ _ _ _ _ 
4 | _ P _ _ _ P P P 
3 | P _ P _ _ _ _ _ 
2 | _ _ _ P P _ P _ 
1 | R N B Q K B N R 
-------------------
  | A B C D E F G H 

Turn of: white
Succesful move
e2e4
8 | R N _ Q K B N R 
7 | P _ P P _ P _ P 
6 | _ P _ _ P _ _ _ 
5 | _ B _ _ _ _ _ _ 
4 | _ P _ _ P P P P 
3 | P _ P _ _ _ _ _ 
2 | _ _ _ P _ _ P _ 
1 | R N B Q K B N R 
-------------------
  | A B C D E F G H 

Turn of: black
Succesful move
b5c4
8 | R N _ Q K B N R 
7 | P _ P P _ P _ P 
6 | _ P _ _ P _ _ _ 
5 | _ _ _ _ _ _ _ _ 
4 | _ P B _ P P P P 
3 | P _ P _ _ _ _ _ 
2 | _ _ _ P _ _ P _ 
1 | R N B Q K B N R 
-------------------
  | A B C D E F G H 

Turn of: white
Succesful move
g2g3
8 | R N _ Q K B N R 
7 | P _ P P _ P _ P 
6 | _ P _ _ P _ _ _ 
5 | _ _ _ _ _ _ _ _ 
4 | _ P B _ P P P P 
3 | P _ P _ _ _ P _ 
2 | _ _ _ P _ _ _ _ 
1 | R N B Q K B N R 
-------------------
  | A B C D E F G H 

Turn of: black
Succesful move
g8f6
8 | R N _ Q K B _ R 
7 | P _ P P _ P _ P 
6 | _ P _ _ P N _ _ 
5 | _ _ _ _ _ _ _ _ 
4 | _ P B _ P P P P 
3 | P _ P _ _ _ P _ 
2 | _ _ _ P _ _ _ _ 
1 | R N B Q K B N R 
-------------------
  | A B C D E F G H 

Turn of: white
Succesful move
d2d3
8 | R N _ Q K B _ R 
7 | P _ P P _ P _ P 
6 | _ P _ _ P N _ _ 
5 | _ _ _ _ _ _ _ _ 
4 | _ P B _ P P P P 
3 | P _ P P _ _ P _ 
2 | _ _ _ _ _ _ _ _ 
1 | R N B Q K B N R 
-------------------
  | A B C D E F G H 

Turn of: black
Succesful move
b6b5
8 | R N _ Q K B _ R 
7 | P _ P P _ P _ P 
6 | _ _ _ _ P N _ _ 
5 | _ P _ _ _ _ _ _ 
4 | _ P B _ P P P P 
3 | P _ P P _ _ P _ 
2 | _ _ _ _ _ _ _ _ 
1 | R N B Q K B N R 
-------------------
  | A B C D E F G H 

Turn of: white
Succesful move
c1b2
8 | R N _ Q K B _ R 
7 | P _ P P _ P _ P 
6 | _ _ _ _ P N _ _ 
5 | _ P _ _ _ _ _ _ 
4 | _ P B _ P P P P 
3 | P _ P P _ _ P _ 
2 | _ B _ _ _ _ _ _ 
1 | R N _ Q K B N R 
-------------------
  | A B C D E F G H 

Turn of: black
Succesful move
f6d5
8 | R N _ Q K B _ R 
7 | P _ P P _ P _ P 
6 | _ _ _ _ P _ _ _ 
5 | _ P _ N _ _ _ _ 
4 | _ P B _ P P P P 
3 | P _ P P _ _ P _ 
2 | _ B _ _ _ _ _ _ 
1 | R N _ Q K B N R 
-------------------
  | A B C D E F G H 

Turn of: white
Succesful move
f4f5
8 | R N _ Q K B _ R 
7 | P _ P P _ P _ P 
6 | _ _ _ _ P _ _ _ 
5 | _ P _ N _ P _ _ 
4 | _ P B _ P _ P P 
3 | P _ P P _ _ P _ 
2 | _ B _ _ _ _ _ _ 
1 | R N _ Q K B N R 
-------------------
  | A B C D E F G H 

Turn of: black
Succesful move
c4d3
8 | R N _ Q K B _ R 
7 | P _ P P _ P _ P 
6 | _ _ _ _ P _ _ _ 
5 | _ P _ N _ P _ _ 
4 | _ P _ _ P _ P P 
3 | P _ P B _ _ P _ 
2 | _ B _ _ _ _ _ _ 
1 | R N _ Q K B N R 
-------------------
  | A B C D E F G H 

Turn of: white
Succesful move
g1h3
8 | R N _ Q K B _ R 
7 | P _ P P _ P _ P 
6 | _ _ _ _ P _ _ _ 
5 | _ P _ N _ P _ _ 
4 | _ P _ _ P _ P P 
3 | P _ P B _ _ P N 
2 | _ B _ _ _ _ _ _ 
1 | R N _ Q K B _ R 
-------------------
  | A B C D E F G H 

Turn of: black
Succesful move
d3c4
8 | R N _ Q K B _ R 
7 | P _ P P _ P _ P 
6 | _ _ _ _ P _ _ _ 
5 | _ P _ N _ P _ _ 
4 | _ P B _ P _ P P 
3 | P _ P _ _ _ P N 
2 | _ B _ _ _ _ _ _ 
1 | R N _ Q K B _ R 
-------------------
  | A B C D E F G H 

Turn of: white
Succesful move
f5f6
8 | R N _ Q K B _ R 
7 | P _ P P _ P _ P 
6 | _ _ _ _ P P _ _ 
5 | _ P _ N _ _ _ _ 
4 | _ P B _ P _ P P 
3 | P _ P _ _ _ P N 
2 | _ B _ _ _ _ _ _ 
1 | R N _ Q K B _ R 
-------------------
  | A B C D E F G H 

Turn of: black
Succesful move
c4d3
8 | R N _ Q K B _ R 
7 | P _ P P _ P _ P 
6 | _ _ _ _ P P _ _ 
5 | _ P _ N _ _ _ _ 
4 | _ P _ _ P _ P P 
3 | P _ P B _ _ P N 
2 | _ B _ _ _ _ _ _ 
1 | R N _ Q K B _ R 
-------------------
  | A B C D E F G H 

Turn of: white
Succesful move
a3a4
8 | R N _ Q K B _ R 
7 | P _ P P _ P _ P 
6 | _ _ _ _ P P _ _ 
5 | _ P _ N _ _ _ _ 
4 | P P _ _ P _ P P 
3 | _ _ P B _ _ P N 
2 | _ B _ _ _ _ _ _ 
1 | R N _ Q K B _ R 
-------------------
  | A B C D E F G H 

Turn of: black
Succesful move
e6e5
8 | R N _ Q K B _ R 
7 | P _ P P _ P _ P 
6 | _ _ _ _ _ P _ _ 
5 | _ P _ N P _ _ _ 
4 | P P _ _ P _ P P 
3 | _ _ P B _ _ P N 
2 | _ B _ _ _ _ _ _ 
1 | R N _ Q K B _ R 
-------------------
  | A B C D E F G H 

Turn of: white
Succesful move
d1d2
8 | R N _ Q K B _ R 
7 | P _ P P _ P _ P 
6 | _ _ _ _ _ P _ _ 
5 | _ P _ N P _ _ _ 
4 | P P _ _ P _ P P 
3 | _ _ P B _ _ P N 
2 | _ B _ Q _ _ _ _ 
1 | R N _ _ K B _ R 
-------------------
  | A B C D E F G H 

Turn of: black
Succesful move
d3c2
8 | R N _ Q K B _ R 
7 | P _ P P _ P _ P 
6 | _ _ _ _ _ P _ _ 
5 | _ P _ N P _ _ _ 
4 | P P _ _ P _ P P 
3 | _ _ P _ _ _ P N 
2 | _ B B Q _ _ _ _ 
1 | R N _ _ K B _ R 
-------------------
  | A B C D E F G H 

Turn of: white
Succesful move
d2f4
8 | R N _ Q K B _ R 
7 | P _ P P _ P _ P 
6 | _ _ _ _ _ P _ _ 
5 | _ P _ N P _ _ _ 
4 | P P _ _ P Q P P 
3 | _ _ P _ _ _ P N 
2 | _ B B _ _ _ _ _ 
1 | R N _ _ K B _ R 
-------------------
  | A B C D E F G H 

Turn of: black
Succesful move
d7d6
8 | R N _ Q K B _ R 
7 | P _ P _ _ P _ P 
6 | _ _ _ P _ P _ _ 
5 | _ P _ N P _ _ _ 
4 | P P _ _ P Q P P 
3 | _ _ P _ _ _ P N 
2 | _ B B _ _ _ _ _ 
1 | R N _ _ K B _ R 
-------------------
  | A B C D E F G H 

Turn of: white
Succesful move
f1c4
8 | R N _ Q K B _ R 
7 | P _ P _ _ P _ P 
6 | _ _ _ P _ P _ _ 
5 | _ P _ N P _ _ _ 
4 | P P B _ P Q P P 
3 | _ _ P _ _ _ P N 
2 | _ B B _ _ _ _ _ 
1 | R N _ _ K _ _ R 
-------------------
  | A B C D E F G H 

Turn of: black
Succesful move
d5b4
8 | R N _ Q K B _ R 
7 | P _ P _ _ P _ P 
6 | _ _ _ P _ P _ _ 
5 | _ P _ _ P _ _ _ 
4 | P N B _ P Q P P 
3 | _ _ P _ _ _ P N 
2 | _ B B _ _ _ _ _ 
1 | R N _ _ K _ _ R 
-------------------
  | A B C D E F G H 

Turn of: white
Succesful move
e1d2
8 | R N _ Q K B _ R 
7 | P _ P _ _ P _ P 
6 | _ _ _ P _ P _ _ 
5 | _ P _ _ P _ _ _ 
4 | P N B _ P Q P P 
3 | _ _ P _ _ _ P N 
2 | _ B B K _ _ _ _ 
1 | R N _ _ _ _ _ R 
-------------------
  | A B C D E F G H 

Turn of: black
Succesful move
b4d5
8 | R N _ Q K B _ R 
7 | P _ P _ _ P _ P 
6 | _ _ _ P _ P _ _ 
5 | _ P _ N P _ _ _ 
4 | P _ B _ P Q P P 
3 | _ _ P _ _ _ P N 
2 | _ B B K _ _ _ _ 
1 | R N _ _ _ _ _ R 
-------------------
  | A B C D E F G H 

Turn of: white
Succesful move
f4g5
8 | R N _ Q K B _ R 
7 | P _ P _ _ P _ P 
6 | _ _ _ P _ P _ _ 
5 | _ P _ N P _ Q _ 
4 | P _ B _ P _ P P 
3 | _ _ P _ _ _ P N 
2 | _ B B K _ _ _ _ 
1 | R N _ _ _ _ _ R 
-------------------
  | A B C D E F G H 

Turn of: black
Succesful move
b8c6
8 | R _ _ Q K B _ R 
7 | P _ P _ _ P _ P 
6 | _ _ N P _ P _ _ 
5 | _ P _ N P _ Q _ 
4 | P _ B _ P _ P P 
3 | _ _ P _ _ _ P N 
2 | _ B B K _ _ _ _ 
1 | R N _ _ _ _ _ R 
-------------------
  | A B C D E F G H 

Turn of: white
Succesful move
h1h2
8 | R _ _ Q K B _ R 
7 | P _ P _ _ P _ P 
6 | _ _ N P _ P _ _ 
5 | _ P _ N P _ Q _ 
4 | P _ B _ P _ P P 
3 | _ _ P _ _ _ P N 
2 | _ B B K _ _ _ R 
1 | R N _ _ _ _ _ _ 
-------------------
  | A B C D E F G H 

Turn of: black
Succesful move
c6b8
8 | R N _ Q K B _ R 
7 | P _ P _ _ P _ P 
6 | _ _ _ P _ P _ _ 
5 | _ P _ N P _ Q _ 
4 | P _ B _ P _ P P 
3 | _ _ P _ _ _ P N 
2 | _ B B K _ _ _ R 
1 | R N _ _ _ _ _ _ 
-------------------
  | A B C D E F G H 

Turn of: white
Succesful move
a4b5
8 | R N _ Q K B _ R 
7 | P _ P _ _ P _ P 
6 | _ _ _ P _ P _ _ 
5 | _ P _ N P _ Q _ 
4 | _ _ B _ P _ P P 
3 | _ _ P _ _ _ P N 
2 | _ B B K _ _ _ R 
1 | R N _ _ _ _ _ _ 
-------------------
  | A B C D E F G H 

Turn of: black
Succesful move
d5e7
8 | R N _ Q K B _ R 
7 | P _ P _ N P _ P 
6 | _ _ _ P _ P _ _ 
5 | _ P _ _ P _ Q _ 
4 | _ _ B _ P _ P P 
3 | _ _ P _ _ _ P N 
2 | _ B B K _ _ _ R 
1 | R N _ _ _ _ _ _ 
-------------------
  | A B C D E F G H 

Turn of: white
Succesful move
g5h5
8 | R N _ Q K B _ R 
7 | P _ P _ N P _ P 
6 | _ _ _ P _ P _ _ 
5 | _ P _ _ P _ _ Q 
4 | _ _ B _ P _ P P 
3 | _ _ P _ _ _ P N 
2 | _ B B K _ _ _ R 
1 | R N _ _ _ _ _ _ 
-------------------
  | A B C D E F G H 

Turn of: black
Succesful move
c2d1
8 | R N _ Q K B _ R 
7 | P _ P _ N P _ P 
6 | _ _ _ P _ P _ _ 
5 | _ P _ _ P _ _ Q 
4 | _ _ B _ P _ P P 
3 | _ _ P _ _ _ P N 
2 | _ B _ K _ _ _ R 
1 | R N _ B _ _ _ _ 
-------------------
  | A B C D E F G H 

Turn of: white
Succesful move
h2h1
8 | R N _ Q K B _ R 
7 | P _ P _ N P _ P 
6 | _ _ _ P _ P _ _ 
5 | _ P _ _ P _ _ Q 
4 | _ _ B _ P _ P P 
3 | _ _ P _ _ _ P N 
2 | _ B _ K _ _ _ _ 
1 | R N _ B _ _ _ R 
-------------------
  | A B C D E F G H 

Turn of: black
Succesful move
e7g6
8 | R N _ Q K B _ R 
7 | P _ P _ _ P _ P 
6 | _ _ _ P _ P N _ 
5 | _ P _ _ P _ _ Q 
4 | _ _ B _ P _ P P 
3 | _ _ P _ _ _ P N 
2 | _ B _ K _ _ _ _ 
1 | R N _ B _ _ _ R 
-------------------
  | A B C D E F G H 

Turn of: white
Succesful move
a1a3
8 | R N _ Q K B _ R 
7 | P _ P _ _ P _ P 
6 | _ _ _ P _ P N _ 
5 | _ P _ _ P _ _ Q 
4 | _ _ B _ P _ P P 
3 | R _ P _ _ _ P N 
2 | _ B _ K _ _ _ _ 
1 | _ N _ B _ _ _ R 
-------------------
  | A B C D E F G H 

Turn of: black
Succesful move
a7a5
8 | R N _ Q K B _ R 
7 | _ _ P _ _ P _ P 
6 | _ _ _ P _ P N _ 
5 | P P _ _ P _ _ Q 
4 | _ _ B _ P _ P P 
3 | R _ P _ _ _ P N 
2 | _ B _ K _ _ _ _ 
1 | _ N _ B _ _ _ R 
-------------------
  | A B C D E F G H 

Turn of: white
Succesful move
h5g5
8 | R N _ Q K B _ R 
7 | _ _ P _ _ P _ P 
6 | _ _ _ P _ P N _ 
5 | P P _ _ P _ Q _ 
4 | _ _ B _ P _ P P 
3 | R _ P _ _ _ P N 
2 | _ B _ K _ _ _ _ 
1 | _ N _ B _ _ _ R 
-------------------
  | A B C D E F G H 

Turn of: black
Succesful move
a8a7
8 | _ N _ Q K B _ R 
7 | R _ P _ _ P _ P 
6 | _ _ _ P _ P N _ 
5 | P P _ _ P _ Q _ 
4 | _ _ B _ P _ P P 
3 | R _ P _ _ _ P N 
2 | _ B _ K _ _ _ _ 
1 | _ N _ B _ _ _ R 
-------------------
  | A B C D E F G H 

We are playing as White
Move history:
b2b4
g7g5
f2f4
b7b6
a2a3
c8a6
h2h3
g5g4
h3h4
e7e6
c2c3
a6b5
e2e4
b5c4
g2g3
g8f6
d2d3
b6b5
c1b2
f6d5
f4f5
c4d3
g1h3
d3c4
f5f6
c4d3
a3a4
e6e5
d1d2
d3c2
d2f4
d7d6
f1c4
d5b4
e1d2
b4d5
f4g5
b8c6
h1h2
c6b8
a4b5
d5e7
g5h5
c2d1
h2h1
e7g6
a1a3
a7a5
h5g5
a8a7
8 | _ N _ Q K B _ R 
7 | R _ P _ _ P _ P 
6 | _ _ _ P _ P N _ 
5 | P P _ _ P _ Q _ 
4 | _ _ B _ P _ P P 
3 | R _ P _ _ _ P N 
2 | _ B _ K _ _ _ _ 
1 | _ N _ B _ _ _ R 
-------------------
  | A B C D E F G H 

It is white's turn to play.
AI's move: c4f7
Move written: c4f7
[32;1m[Game] [0mPlayer's error code: 0
[32;1m[Game] [0mChecking move validity...
[32;1m[Board] [0mInitializing board...
[32;1m[Board] [0mLoading history file `championship/lizzie-iii-check-innit-mate/history.csv`...
[32;1m[Board] [0mLoaded 50 move(s).
[32;1m[Board] [0mLoading move file `championship/lizzie-iii-check-innit-mate/move.csv`...
[32;1m[Board] [0mWhite player is playing c4 to f7.
[32;1m[Board] [0m[5;1mWhite Bishop is taking Black Pawn.[0m
[32;1m[Board] [0m
[32;1m[Board] [0m    a b c d e f g h 
[32;1m[Board] [0m  -------------------
[32;1m[Board] [0m8 ||[7;1m [0m|[30;1mk[0m|[7;1m [0m|[30;1mQ[0m|[30;1mK[0m|[30;1mb[0m|[7;1m [0m|[30;1mr[0m|| 8
[32;1m[Board] [0m  -------------------
[32;1m[Board] [0m7 ||[30;1mr[0m|[7;1m [0m|[30;1mp[0m|[7;1m [0m| |[0;1mb[0m| |[30;1mp[0m|| 7
[32;1m[Board] [0m  -------------------
[32;1m[Board] [0m6 ||[7;1m [0m| |[7;1m [0m|[30;1mp[0m|[7;1m [0m|[0;1mp[0m|[30;1mk[0m| || 6
[32;1m[Board] [0m  -------------------
[32;1m[Board] [0m5 ||[30;1mp[0m|[0;1mp[0m| |[7;1m [0m|[30;1mp[0m|[7;1m [0m|[0;1mQ[0m|[7;1m [0m|| 5
[32;1m[Board] [0m  -------------------
[32;1m[Board] [0m4 ||[7;1m [0m| |[7;1m [0m| |[0;1mp[0m| |[30;1mp[0m|[0;1mp[0m|| 4
[32;1m[Board] [0m  -------------------
[32;1m[Board] [0m3 ||[0;1mr[0m|[7;1m [0m|[0;1mp[0m|[7;1m [0m| |[7;1m [0m|[0;1mp[0m|[0;1mk[0m|| 3
[32;1m[Board] [0m  -------------------
[32;1m[Board] [0m2 ||[7;1m [0m|[0;1mb[0m|[7;1m [0m|[0;1mK[0m|[7;1m [0m| |[7;1m [0m| || 2
[32;1m[Board] [0m  -------------------
[32;1m[Board] [0m1 || |[0;1mk[0m| |[30;1mb[0m| |[7;1m [0m| |[0;1mr[0m|| 1
[32;1m[Board] [0m  -------------------
[32;1m[Board] [0m    a b c d e f g h
[32;1m[Board] [0m
[32;1m[Referee] [0mThis is the turn of the Black player...
[32;1m[Board] [0m[33;1m[WARNING][0m [5;1mBlack King in check![0m
[32;1m[Board] [0m[33;1m[WARNING][0m    Threatened by White Bishop (f7)
- 0 - 0 0 0 - 0 
0 - 0 - - 1 - 0 
- - - 0 - 1 0 - 
0 1 - - 0 - 1 - 
- - - - 1 - 0 1 
1 - 1 - - - 1 1 
- 1 - 1 - - - - 
- 1 - 0 - - - 1 
--------
looking for king 0, 1Knight
0
looking for king 0, 3Bishop
0
looking for king 0, 7Rook
0
looking for king 1, 1Bishop
0
looking for king 1, 3King
1
looking for king 2, 0Rook
0
looking for king 2, 2Pawn
0
looking for king 2, 6Pawn
0
looking for king 2, 7Knight
0
looking for king 3, 4Pawn
0
looking for king 3, 6Pawn
0
looking for king 3, 7Pawn
0
looking for king 4, 0Pawn
0
looking for king 4, 1Pawn
0
looking for king 4, 4Pawn
0
looking for king 4, 6Queen
0
looking for king 5, 3Pawn
0
looking for king 5, 5Pawn
0
looking for king 5, 6Knight
0
looking for king 6, 0Rook
0
looking for king 6, 2Pawn
0
looking for king 6, 5Bishop
0
looking for king 6, 7Pawn
0
looking for king 7, 1Knight
0
looking for king 7, 3Queen
0
looking for king 7, 4King
1
looking for king 0, 1Knight
0
looking for king 0, 7Rook
0
looking for king 1, 1Bishop
0
looking for king 1, 3King
1
looking for king 1, 4Bishop
0
looking for king 2, 0Rook
0
looking for king 2, 2Pawn
0
looking for king 2, 6Pawn
0
looking for king 2, 7Knight
0
looking for king 3, 4Pawn
0
looking for king 3, 6Pawn
0
looking for king 3, 7Pawn
0
looking for king 4, 0Pawn
0
looking for king 4, 1Pawn
0
looking for king 4, 4Pawn
0
looking for king 4, 6Queen
0
looking for king 5, 3Pawn
0
looking for king 5, 5Pawn
0
looking for king 5, 6Knight
0
looking for king 6, 0Rook
0
looking for king 6, 2Pawn
0
looking for king 6, 5Bishop
0
looking for king 6, 7Pawn
0
looking for king 7, 1Knight
0
looking for king 7, 3Queen
0
looking for king 7, 4King
1
looking for king 0, 1Unknown
0
looking for king 0, 7Unknown
0
looking for king 1, 1Unknown
0
looking for king 1, 3Unknown
0
looking for king 2, 0Rook
0
looking for king 2, 2Pawn
0
looking for king 2, 5Bishop
0
looking for king 2, 6Pawn
0
looking for king 2, 7Knight
0
looking for king 3, 4Pawn
0
looking for king 3, 6Pawn
0
looking for king 3, 7Pawn
0
looking for king 4, 0Pawn
0
looking for king 4, 1Pawn
0
looking for king 4, 4Pawn
0
looking for king 4, 6Queen
0
looking for king 5, 3Pawn
0
looking for king 5, 5Pawn
0
looking for king 5, 6Knight
0
looking for king 6, 0Rook
0
looking for king 6, 2Pawn
0
looking for king 6, 5Bishop
0
looking for king 6, 7Pawn
0
looking for king 7, 1Knight
0
looking for king 7, 3Queen
0
looking for king 7, 4King
1
[32;1m[Game] [0mPlayer's error code: 11
[32;1m[Game] [0m[31;1m[ERROR][0m The program `/home/julien/Pro/git/teaching/x/2024/check-innit-mate/build/check-innit-mate' has crashed :(
[32;1m[Game] [0mBlack player has lost on illegal move.
