[32;1m[Board] [0mInitializing board...
[32;1m[Board] [0m
[32;1m[Board] [0m    a b c d e f g h 
[32;1m[Board] [0m  -------------------
[32;1m[Board] [0m8 ||[30;1mr[0m|[30;1mk[0m|[30;1mb[0m|[30;1mQ[0m|[30;1mK[0m|[30;1mb[0m|[30;1mk[0m|[30;1mr[0m|| 8
[32;1m[Board] [0m  -------------------
[32;1m[Board] [0m7 ||[30;1mp[0m|[30;1mp[0m|[30;1mp[0m|[30;1mp[0m|[30;1mp[0m|[30;1mp[0m|[30;1mp[0m|[30;1mp[0m|| 7
[32;1m[Board] [0m  -------------------
[32;1m[Board] [0m6 ||[7;1m [0m| |[7;1m [0m| |[7;1m [0m| |[7;1m [0m| || 6
[32;1m[Board] [0m  -------------------
[32;1m[Board] [0m5 || |[7;1m [0m| |[7;1m [0m| |[7;1m [0m| |[7;1m [0m|| 5
[32;1m[Board] [0m  -------------------
[32;1m[Board] [0m4 ||[7;1m [0m| |[7;1m [0m| |[7;1m [0m| |[7;1m [0m| || 4
[32;1m[Board] [0m  -------------------
[32;1m[Board] [0m3 || |[7;1m [0m| |[7;1m [0m| |[7;1m [0m| |[7;1m [0m|| 3
[32;1m[Board] [0m  -------------------
[32;1m[Board] [0m2 ||[0;1mp[0m|[0;1mp[0m|[0;1mp[0m|[0;1mp[0m|[0;1mp[0m|[0;1mp[0m|[0;1mp[0m|[0;1mp[0m|| 2
[32;1m[Board] [0m  -------------------
[32;1m[Board] [0m1 ||[0;1mr[0m|[0;1mk[0m|[0;1mb[0m|[0;1mQ[0m|[0;1mK[0m|[0;1mb[0m|[0;1mk[0m|[0;1mr[0m|| 1
[32;1m[Board] [0m  -------------------
[32;1m[Board] [0m    a b c d e f g h
[32;1m[Board] [0m
[32;1m[Referee] [0mThis is the turn of the White player...
Input file: championship/lizzie-iii-chess_and_the_city/history.csv
Output file: championship/lizzie-iii-chess_and_the_city/move.csv
We are playing as White
Move history:
8 | R N B Q K B N R 
7 | P P P P P P P P 
6 | _ _ _ _ _ _ _ _ 
5 | _ _ _ _ _ _ _ _ 
4 | _ _ _ _ _ _ _ _ 
3 | _ _ _ _ _ _ _ _ 
2 | P P P P P P P P 
1 | R N B Q K B N R 
-------------------
  | A B C D E F G H 

It is white's turn to play.
AI's move: f2f3
Move written: f2f3
[32;1m[Game] [0mPlayer's error code: 0
[32;1m[Game] [0mChecking move validity...
[32;1m[Board] [0mInitializing board...
[32;1m[Board] [0mLoading history file `championship/lizzie-iii-chess_and_the_city/history.csv`...
[32;1m[Board] [0mLoaded 0 move(s).
[32;1m[Board] [0mLoading move file `championship/lizzie-iii-chess_and_the_city/move.csv`...
[32;1m[Board] [0mWhite player is playing f2 to f3.
[32;1m[Board] [0m
[32;1m[Board] [0m    a b c d e f g h 
[32;1m[Board] [0m  -------------------
[32;1m[Board] [0m8 ||[30;1mr[0m|[30;1mk[0m|[30;1mb[0m|[30;1mQ[0m|[30;1mK[0m|[30;1mb[0m|[30;1mk[0m|[30;1mr[0m|| 8
[32;1m[Board] [0m  -------------------
[32;1m[Board] [0m7 ||[30;1mp[0m|[30;1mp[0m|[30;1mp[0m|[30;1mp[0m|[30;1mp[0m|[30;1mp[0m|[30;1mp[0m|[30;1mp[0m|| 7
[32;1m[Board] [0m  -------------------
[32;1m[Board] [0m6 ||[7;1m [0m| |[7;1m [0m| |[7;1m [0m| |[7;1m [0m| || 6
[32;1m[Board] [0m  -------------------
[32;1m[Board] [0m5 || |[7;1m [0m| |[7;1m [0m| |[7;1m [0m| |[7;1m [0m|| 5
[32;1m[Board] [0m  -------------------
[32;1m[Board] [0m4 ||[7;1m [0m| |[7;1m [0m| |[7;1m [0m| |[7;1m [0m| || 4
[32;1m[Board] [0m  -------------------
[32;1m[Board] [0m3 || |[7;1m [0m| |[7;1m [0m| |[0;1mp[0m| |[7;1m [0m|| 3
[32;1m[Board] [0m  -------------------
[32;1m[Board] [0m2 ||[0;1mp[0m|[0;1mp[0m|[0;1mp[0m|[0;1mp[0m|[0;1mp[0m| |[0;1mp[0m|[0;1mp[0m|| 2
[32;1m[Board] [0m  -------------------
[32;1m[Board] [0m1 ||[0;1mr[0m|[0;1mk[0m|[0;1mb[0m|[0;1mQ[0m|[0;1mK[0m|[0;1mb[0m|[0;1mk[0m|[0;1mr[0m|| 1
[32;1m[Board] [0m  -------------------
[32;1m[Board] [0m    a b c d e f g h
[32;1m[Board] [0m
[32;1m[Referee] [0mThis is the turn of the Black player...
Initial board:
--------------------
8| r h b q k b h r |
7| p p p p p p p p |
6| . . . . . . . . |
5| . . . . . . . . |
4| . . . . . . . . |
3| . . . . . . . . |
2| P P P P P P P P |
1| R H B Q K B H R |
--------------------
   a b c d e f g h
After reading:
--------------------
8| r h b q k b h r |
7| p p p p p p p p |
6| . . . . . . . . |
5| . . . . . . . . |
4| . . . . . . . . |
3| . . . . . P . . |
2| P P P P P . P P |
1| R H B Q K B H R |
--------------------
   a b c d e f g h
--------------------
8| r h b q k b h r |
7| . p p p p p p p |
6| p . . . . . . . |
5| . . . . . . . . |
4| . . . . . . . . |
3| . . . . . P . . |
2| P P P P P . P P |
1| R H B Q K B H R |
--------------------
   a b c d e f g h
[32;1m[Game] [0mPlayer's error code: 0
[32;1m[Game] [0mChecking move validity...
[32;1m[Board] [0mInitializing board...
[32;1m[Board] [0mLoading history file `championship/lizzie-iii-chess_and_the_city/history.csv`...
[32;1m[Board] [0mLoaded 1 move(s).
[32;1m[Board] [0mLoading move file `championship/lizzie-iii-chess_and_the_city/move.csv`...
[32;1m[Board] [0mBlack player is playing a7 to a6.
[32;1m[Board] [0m
[32;1m[Board] [0m    a b c d e f g h 
[32;1m[Board] [0m  -------------------
[32;1m[Board] [0m8 ||[30;1mr[0m|[30;1mk[0m|[30;1mb[0m|[30;1mQ[0m|[30;1mK[0m|[30;1mb[0m|[30;1mk[0m|[30;1mr[0m|| 8
[32;1m[Board] [0m  -------------------
[32;1m[Board] [0m7 || |[30;1mp[0m|[30;1mp[0m|[30;1mp[0m|[30;1mp[0m|[30;1mp[0m|[30;1mp[0m|[30;1mp[0m|| 7
[32;1m[Board] [0m  -------------------
[32;1m[Board] [0m6 ||[30;1mp[0m| |[7;1m [0m| |[7;1m [0m| |[7;1m [0m| || 6
[32;1m[Board] [0m  -------------------
[32;1m[Board] [0m5 || |[7;1m [0m| |[7;1m [0m| |[7;1m [0m| |[7;1m [0m|| 5
[32;1m[Board] [0m  -------------------
[32;1m[Board] [0m4 ||[7;1m [0m| |[7;1m [0m| |[7;1m [0m| |[7;1m [0m| || 4
[32;1m[Board] [0m  -------------------
[32;1m[Board] [0m3 || |[7;1m [0m| |[7;1m [0m| |[0;1mp[0m| |[7;1m [0m|| 3
[32;1m[Board] [0m  -------------------
[32;1m[Board] [0m2 ||[0;1mp[0m|[0;1mp[0m|[0;1mp[0m|[0;1mp[0m|[0;1mp[0m| |[0;1mp[0m|[0;1mp[0m|| 2
[32;1m[Board] [0m  -------------------
[32;1m[Board] [0m1 ||[0;1mr[0m|[0;1mk[0m|[0;1mb[0m|[0;1mQ[0m|[0;1mK[0m|[0;1mb[0m|[0;1mk[0m|[0;1mr[0m|| 1
[32;1m[Board] [0m  -------------------
[32;1m[Board] [0m    a b c d e f g h
[32;1m[Board] [0m
[32;1m[Referee] [0mThis is the turn of the White player...
Input file: championship/lizzie-iii-chess_and_the_city/history.csv
Output file: championship/lizzie-iii-chess_and_the_city/move.csv
Turn of: white
Succesful move
f2f3
8 | R N B Q K B N R 
7 | P P P P P P P P 
6 | _ _ _ _ _ _ _ _ 
5 | _ _ _ _ _ _ _ _ 
4 | _ _ _ _ _ _ _ _ 
3 | _ _ _ _ _ P _ _ 
2 | P P P P P _ P P 
1 | R N B Q K B N R 
-------------------
  | A B C D E F G H 

Turn of: black
Succesful move
a7a6
8 | R N B Q K B N R 
7 | _ P P P P P P P 
6 | P _ _ _ _ _ _ _ 
5 | _ _ _ _ _ _ _ _ 
4 | _ _ _ _ _ _ _ _ 
3 | _ _ _ _ _ P _ _ 
2 | P P P P P _ P P 
1 | R N B Q K B N R 
-------------------
  | A B C D E F G H 

We are playing as White
Move history:
f2f3
a7a6
8 | R N B Q K B N R 
7 | _ P P P P P P P 
6 | P _ _ _ _ _ _ _ 
5 | _ _ _ _ _ _ _ _ 
4 | _ _ _ _ _ _ _ _ 
3 | _ _ _ _ _ P _ _ 
2 | P P P P P _ P P 
1 | R N B Q K B N R 
-------------------
  | A B C D E F G H 

It is white's turn to play.
AI's move: a2a4
Move written: a2a4
[32;1m[Game] [0mPlayer's error code: 0
[32;1m[Game] [0mChecking move validity...
[32;1m[Board] [0mInitializing board...
[32;1m[Board] [0mLoading history file `championship/lizzie-iii-chess_and_the_city/history.csv`...
[32;1m[Board] [0mLoaded 2 move(s).
[32;1m[Board] [0mLoading move file `championship/lizzie-iii-chess_and_the_city/move.csv`...
[32;1m[Board] [0mWhite player is playing a2 to a4.
[32;1m[Board] [0m
[32;1m[Board] [0m    a b c d e f g h 
[32;1m[Board] [0m  -------------------
[32;1m[Board] [0m8 ||[30;1mr[0m|[30;1mk[0m|[30;1mb[0m|[30;1mQ[0m|[30;1mK[0m|[30;1mb[0m|[30;1mk[0m|[30;1mr[0m|| 8
[32;1m[Board] [0m  -------------------
[32;1m[Board] [0m7 || |[30;1mp[0m|[30;1mp[0m|[30;1mp[0m|[30;1mp[0m|[30;1mp[0m|[30;1mp[0m|[30;1mp[0m|| 7
[32;1m[Board] [0m  -------------------
[32;1m[Board] [0m6 ||[30;1mp[0m| |[7;1m [0m| |[7;1m [0m| |[7;1m [0m| || 6
[32;1m[Board] [0m  -------------------
[32;1m[Board] [0m5 || |[7;1m [0m| |[7;1m [0m| |[7;1m [0m| |[7;1m [0m|| 5
[32;1m[Board] [0m  -------------------
[32;1m[Board] [0m4 ||[0;1mp[0m| |[7;1m [0m| |[7;1m [0m| |[7;1m [0m| || 4
[32;1m[Board] [0m  -------------------
[32;1m[Board] [0m3 || |[7;1m [0m| |[7;1m [0m| |[0;1mp[0m| |[7;1m [0m|| 3
[32;1m[Board] [0m  -------------------
[32;1m[Board] [0m2 ||[7;1m [0m|[0;1mp[0m|[0;1mp[0m|[0;1mp[0m|[0;1mp[0m| |[0;1mp[0m|[0;1mp[0m|| 2
[32;1m[Board] [0m  -------------------
[32;1m[Board] [0m1 ||[0;1mr[0m|[0;1mk[0m|[0;1mb[0m|[0;1mQ[0m|[0;1mK[0m|[0;1mb[0m|[0;1mk[0m|[0;1mr[0m|| 1
[32;1m[Board] [0m  -------------------
[32;1m[Board] [0m    a b c d e f g h
[32;1m[Board] [0m
[32;1m[Referee] [0mThis is the turn of the Black player...
Initial board:
--------------------
8| r h b q k b h r |
7| p p p p p p p p |
6| . . . . . . . . |
5| . . . . . . . . |
4| . . . . . . . . |
3| . . . . . . . . |
2| P P P P P P P P |
1| R H B Q K B H R |
--------------------
   a b c d e f g h
After reading:
--------------------
8| r h b q k b h r |
7| . p p p p p p p |
6| p . . . . . . . |
5| . . . . . . . . |
4| P . . . . . . . |
3| . . . . . P . . |
2| . P P P P . P P |
1| R H B Q K B H R |
--------------------
   a b c d e f g h
--------------------
8| r h b q k b h r |
7| . p p p p p p p |
6| . . . . . . . . |
5| p . . . . . . . |
4| P . . . . . . . |
3| . . . . . P . . |
2| . P P P P . P P |
1| R H B Q K B H R |
--------------------
   a b c d e f g h
[32;1m[Game] [0mPlayer's error code: 0
[32;1m[Game] [0mChecking move validity...
[32;1m[Board] [0mInitializing board...
[32;1m[Board] [0mLoading history file `championship/lizzie-iii-chess_and_the_city/history.csv`...
[32;1m[Board] [0mLoaded 3 move(s).
[32;1m[Board] [0mLoading move file `championship/lizzie-iii-chess_and_the_city/move.csv`...
[32;1m[Board] [0mBlack player is playing a6 to a5.
[32;1m[Board] [0m
[32;1m[Board] [0m    a b c d e f g h 
[32;1m[Board] [0m  -------------------
[32;1m[Board] [0m8 ||[30;1mr[0m|[30;1mk[0m|[30;1mb[0m|[30;1mQ[0m|[30;1mK[0m|[30;1mb[0m|[30;1mk[0m|[30;1mr[0m|| 8
[32;1m[Board] [0m  -------------------
[32;1m[Board] [0m7 || |[30;1mp[0m|[30;1mp[0m|[30;1mp[0m|[30;1mp[0m|[30;1mp[0m|[30;1mp[0m|[30;1mp[0m|| 7
[32;1m[Board] [0m  -------------------
[32;1m[Board] [0m6 ||[7;1m [0m| |[7;1m [0m| |[7;1m [0m| |[7;1m [0m| || 6
[32;1m[Board] [0m  -------------------
[32;1m[Board] [0m5 ||[30;1mp[0m|[7;1m [0m| |[7;1m [0m| |[7;1m [0m| |[7;1m [0m|| 5
[32;1m[Board] [0m  -------------------
[32;1m[Board] [0m4 ||[0;1mp[0m| |[7;1m [0m| |[7;1m [0m| |[7;1m [0m| || 4
[32;1m[Board] [0m  -------------------
[32;1m[Board] [0m3 || |[7;1m [0m| |[7;1m [0m| |[0;1mp[0m| |[7;1m [0m|| 3
[32;1m[Board] [0m  -------------------
[32;1m[Board] [0m2 ||[7;1m [0m|[0;1mp[0m|[0;1mp[0m|[0;1mp[0m|[0;1mp[0m| |[0;1mp[0m|[0;1mp[0m|| 2
[32;1m[Board] [0m  -------------------
[32;1m[Board] [0m1 ||[0;1mr[0m|[0;1mk[0m|[0;1mb[0m|[0;1mQ[0m|[0;1mK[0m|[0;1mb[0m|[0;1mk[0m|[0;1mr[0m|| 1
[32;1m[Board] [0m  -------------------
[32;1m[Board] [0m    a b c d e f g h
[32;1m[Board] [0m
[32;1m[Referee] [0mThis is the turn of the White player...
Input file: championship/lizzie-iii-chess_and_the_city/history.csv
Output file: championship/lizzie-iii-chess_and_the_city/move.csv
Turn of: white
Succesful move
f2f3
8 | R N B Q K B N R 
7 | P P P P P P P P 
6 | _ _ _ _ _ _ _ _ 
5 | _ _ _ _ _ _ _ _ 
4 | _ _ _ _ _ _ _ _ 
3 | _ _ _ _ _ P _ _ 
2 | P P P P P _ P P 
1 | R N B Q K B N R 
-------------------
  | A B C D E F G H 

Turn of: black
Succesful move
a7a6
8 | R N B Q K B N R 
7 | _ P P P P P P P 
6 | P _ _ _ _ _ _ _ 
5 | _ _ _ _ _ _ _ _ 
4 | _ _ _ _ _ _ _ _ 
3 | _ _ _ _ _ P _ _ 
2 | P P P P P _ P P 
1 | R N B Q K B N R 
-------------------
  | A B C D E F G H 

Turn of: white
Succesful move
a2a4
8 | R N B Q K B N R 
7 | _ P P P P P P P 
6 | P _ _ _ _ _ _ _ 
5 | _ _ _ _ _ _ _ _ 
4 | P _ _ _ _ _ _ _ 
3 | _ _ _ _ _ P _ _ 
2 | _ P P P P _ P P 
1 | R N B Q K B N R 
-------------------
  | A B C D E F G H 

Turn of: black
Succesful move
a6a5
8 | R N B Q K B N R 
7 | _ P P P P P P P 
6 | _ _ _ _ _ _ _ _ 
5 | P _ _ _ _ _ _ _ 
4 | P _ _ _ _ _ _ _ 
3 | _ _ _ _ _ P _ _ 
2 | _ P P P P _ P P 
1 | R N B Q K B N R 
-------------------
  | A B C D E F G H 

We are playing as White
Move history:
f2f3
a7a6
a2a4
a6a5
8 | R N B Q K B N R 
7 | _ P P P P P P P 
6 | _ _ _ _ _ _ _ _ 
5 | P _ _ _ _ _ _ _ 
4 | P _ _ _ _ _ _ _ 
3 | _ _ _ _ _ P _ _ 
2 | _ P P P P _ P P 
1 | R N B Q K B N R 
-------------------
  | A B C D E F G H 

It is white's turn to play.
AI's move: d2d3
Move written: d2d3
[32;1m[Game] [0mPlayer's error code: 0
[32;1m[Game] [0mChecking move validity...
[32;1m[Board] [0mInitializing board...
[32;1m[Board] [0mLoading history file `championship/lizzie-iii-chess_and_the_city/history.csv`...
[32;1m[Board] [0mLoaded 4 move(s).
[32;1m[Board] [0mLoading move file `championship/lizzie-iii-chess_and_the_city/move.csv`...
[32;1m[Board] [0mWhite player is playing d2 to d3.
[32;1m[Board] [0m
[32;1m[Board] [0m    a b c d e f g h 
[32;1m[Board] [0m  -------------------
[32;1m[Board] [0m8 ||[30;1mr[0m|[30;1mk[0m|[30;1mb[0m|[30;1mQ[0m|[30;1mK[0m|[30;1mb[0m|[30;1mk[0m|[30;1mr[0m|| 8
[32;1m[Board] [0m  -------------------
[32;1m[Board] [0m7 || |[30;1mp[0m|[30;1mp[0m|[30;1mp[0m|[30;1mp[0m|[30;1mp[0m|[30;1mp[0m|[30;1mp[0m|| 7
[32;1m[Board] [0m  -------------------
[32;1m[Board] [0m6 ||[7;1m [0m| |[7;1m [0m| |[7;1m [0m| |[7;1m [0m| || 6
[32;1m[Board] [0m  -------------------
[32;1m[Board] [0m5 ||[30;1mp[0m|[7;1m [0m| |[7;1m [0m| |[7;1m [0m| |[7;1m [0m|| 5
[32;1m[Board] [0m  -------------------
[32;1m[Board] [0m4 ||[0;1mp[0m| |[7;1m [0m| |[7;1m [0m| |[7;1m [0m| || 4
[32;1m[Board] [0m  -------------------
[32;1m[Board] [0m3 || |[7;1m [0m| |[0;1mp[0m| |[0;1mp[0m| |[7;1m [0m|| 3
[32;1m[Board] [0m  -------------------
[32;1m[Board] [0m2 ||[7;1m [0m|[0;1mp[0m|[0;1mp[0m| |[0;1mp[0m| |[0;1mp[0m|[0;1mp[0m|| 2
[32;1m[Board] [0m  -------------------
[32;1m[Board] [0m1 ||[0;1mr[0m|[0;1mk[0m|[0;1mb[0m|[0;1mQ[0m|[0;1mK[0m|[0;1mb[0m|[0;1mk[0m|[0;1mr[0m|| 1
[32;1m[Board] [0m  -------------------
[32;1m[Board] [0m    a b c d e f g h
[32;1m[Board] [0m
[32;1m[Referee] [0mThis is the turn of the Black player...
Initial board:
--------------------
8| r h b q k b h r |
7| p p p p p p p p |
6| . . . . . . . . |
5| . . . . . . . . |
4| . . . . . . . . |
3| . . . . . . . . |
2| P P P P P P P P |
1| R H B Q K B H R |
--------------------
   a b c d e f g h
After reading:
--------------------
8| r h b q k b h r |
7| . p p p p p p p |
6| . . . . . . . . |
5| p . . . . . . . |
4| P . . . . . . . |
3| . . . P . P . . |
2| . P P . P . P P |
1| R H B Q K B H R |
--------------------
   a b c d e f g h
--------------------
8| r h b q k b h r |
7| . p p p p p . p |
6| . . . . . . p . |
5| p . . . . . . . |
4| P . . . . . . . |
3| . . . P . P . . |
2| . P P . P . P P |
1| R H B Q K B H R |
--------------------
   a b c d e f g h
[32;1m[Game] [0mPlayer's error code: 0
[32;1m[Game] [0mChecking move validity...
[32;1m[Board] [0mInitializing board...
[32;1m[Board] [0mLoading history file `championship/lizzie-iii-chess_and_the_city/history.csv`...
[32;1m[Board] [0mLoaded 5 move(s).
[32;1m[Board] [0mLoading move file `championship/lizzie-iii-chess_and_the_city/move.csv`...
[32;1m[Board] [0mBlack player is playing g7 to g6.
[32;1m[Board] [0m
[32;1m[Board] [0m    a b c d e f g h 
[32;1m[Board] [0m  -------------------
[32;1m[Board] [0m8 ||[30;1mr[0m|[30;1mk[0m|[30;1mb[0m|[30;1mQ[0m|[30;1mK[0m|[30;1mb[0m|[30;1mk[0m|[30;1mr[0m|| 8
[32;1m[Board] [0m  -------------------
[32;1m[Board] [0m7 || |[30;1mp[0m|[30;1mp[0m|[30;1mp[0m|[30;1mp[0m|[30;1mp[0m| |[30;1mp[0m|| 7
[32;1m[Board] [0m  -------------------
[32;1m[Board] [0m6 ||[7;1m [0m| |[7;1m [0m| |[7;1m [0m| |[30;1mp[0m| || 6
[32;1m[Board] [0m  -------------------
[32;1m[Board] [0m5 ||[30;1mp[0m|[7;1m [0m| |[7;1m [0m| |[7;1m [0m| |[7;1m [0m|| 5
[32;1m[Board] [0m  -------------------
[32;1m[Board] [0m4 ||[0;1mp[0m| |[7;1m [0m| |[7;1m [0m| |[7;1m [0m| || 4
[32;1m[Board] [0m  -------------------
[32;1m[Board] [0m3 || |[7;1m [0m| |[0;1mp[0m| |[0;1mp[0m| |[7;1m [0m|| 3
[32;1m[Board] [0m  -------------------
[32;1m[Board] [0m2 ||[7;1m [0m|[0;1mp[0m|[0;1mp[0m| |[0;1mp[0m| |[0;1mp[0m|[0;1mp[0m|| 2
[32;1m[Board] [0m  -------------------
[32;1m[Board] [0m1 ||[0;1mr[0m|[0;1mk[0m|[0;1mb[0m|[0;1mQ[0m|[0;1mK[0m|[0;1mb[0m|[0;1mk[0m|[0;1mr[0m|| 1
[32;1m[Board] [0m  -------------------
[32;1m[Board] [0m    a b c d e f g h
[32;1m[Board] [0m
[32;1m[Referee] [0mThis is the turn of the White player...
Input file: championship/lizzie-iii-chess_and_the_city/history.csv
Output file: championship/lizzie-iii-chess_and_the_city/move.csv
Turn of: white
Succesful move
f2f3
8 | R N B Q K B N R 
7 | P P P P P P P P 
6 | _ _ _ _ _ _ _ _ 
5 | _ _ _ _ _ _ _ _ 
4 | _ _ _ _ _ _ _ _ 
3 | _ _ _ _ _ P _ _ 
2 | P P P P P _ P P 
1 | R N B Q K B N R 
-------------------
  | A B C D E F G H 

Turn of: black
Succesful move
a7a6
8 | R N B Q K B N R 
7 | _ P P P P P P P 
6 | P _ _ _ _ _ _ _ 
5 | _ _ _ _ _ _ _ _ 
4 | _ _ _ _ _ _ _ _ 
3 | _ _ _ _ _ P _ _ 
2 | P P P P P _ P P 
1 | R N B Q K B N R 
-------------------
  | A B C D E F G H 

Turn of: white
Succesful move
a2a4
8 | R N B Q K B N R 
7 | _ P P P P P P P 
6 | P _ _ _ _ _ _ _ 
5 | _ _ _ _ _ _ _ _ 
4 | P _ _ _ _ _ _ _ 
3 | _ _ _ _ _ P _ _ 
2 | _ P P P P _ P P 
1 | R N B Q K B N R 
-------------------
  | A B C D E F G H 

Turn of: black
Succesful move
a6a5
8 | R N B Q K B N R 
7 | _ P P P P P P P 
6 | _ _ _ _ _ _ _ _ 
5 | P _ _ _ _ _ _ _ 
4 | P _ _ _ _ _ _ _ 
3 | _ _ _ _ _ P _ _ 
2 | _ P P P P _ P P 
1 | R N B Q K B N R 
-------------------
  | A B C D E F G H 

Turn of: white
Succesful move
d2d3
8 | R N B Q K B N R 
7 | _ P P P P P P P 
6 | _ _ _ _ _ _ _ _ 
5 | P _ _ _ _ _ _ _ 
4 | P _ _ _ _ _ _ _ 
3 | _ _ _ P _ P _ _ 
2 | _ P P _ P _ P P 
1 | R N B Q K B N R 
-------------------
  | A B C D E F G H 

Turn of: black
Succesful move
g7g6
8 | R N B Q K B N R 
7 | _ P P P P P _ P 
6 | _ _ _ _ _ _ P _ 
5 | P _ _ _ _ _ _ _ 
4 | P _ _ _ _ _ _ _ 
3 | _ _ _ P _ P _ _ 
2 | _ P P _ P _ P P 
1 | R N B Q K B N R 
-------------------
  | A B C D E F G H 

We are playing as White
Move history:
f2f3
a7a6
a2a4
a6a5
d2d3
g7g6
8 | R N B Q K B N R 
7 | _ P P P P P _ P 
6 | _ _ _ _ _ _ P _ 
5 | P _ _ _ _ _ _ _ 
4 | P _ _ _ _ _ _ _ 
3 | _ _ _ P _ P _ _ 
2 | _ P P _ P _ P P 
1 | R N B Q K B N R 
-------------------
  | A B C D E F G H 

It is white's turn to play.
AI's move: e2e4
Move written: e2e4
[32;1m[Game] [0mPlayer's error code: 0
[32;1m[Game] [0mChecking move validity...
[32;1m[Board] [0mInitializing board...
[32;1m[Board] [0mLoading history file `championship/lizzie-iii-chess_and_the_city/history.csv`...
[32;1m[Board] [0mLoaded 6 move(s).
[32;1m[Board] [0mLoading move file `championship/lizzie-iii-chess_and_the_city/move.csv`...
[32;1m[Board] [0mWhite player is playing e2 to e4.
[32;1m[Board] [0m
[32;1m[Board] [0m    a b c d e f g h 
[32;1m[Board] [0m  -------------------
[32;1m[Board] [0m8 ||[30;1mr[0m|[30;1mk[0m|[30;1mb[0m|[30;1mQ[0m|[30;1mK[0m|[30;1mb[0m|[30;1mk[0m|[30;1mr[0m|| 8
[32;1m[Board] [0m  -------------------
[32;1m[Board] [0m7 || |[30;1mp[0m|[30;1mp[0m|[30;1mp[0m|[30;1mp[0m|[30;1mp[0m| |[30;1mp[0m|| 7
[32;1m[Board] [0m  -------------------
[32;1m[Board] [0m6 ||[7;1m [0m| |[7;1m [0m| |[7;1m [0m| |[30;1mp[0m| || 6
[32;1m[Board] [0m  -------------------
[32;1m[Board] [0m5 ||[30;1mp[0m|[7;1m [0m| |[7;1m [0m| |[7;1m [0m| |[7;1m [0m|| 5
[32;1m[Board] [0m  -------------------
[32;1m[Board] [0m4 ||[0;1mp[0m| |[7;1m [0m| |[0;1mp[0m| |[7;1m [0m| || 4
[32;1m[Board] [0m  -------------------
[32;1m[Board] [0m3 || |[7;1m [0m| |[0;1mp[0m| |[0;1mp[0m| |[7;1m [0m|| 3
[32;1m[Board] [0m  -------------------
[32;1m[Board] [0m2 ||[7;1m [0m|[0;1mp[0m|[0;1mp[0m| |[7;1m [0m| |[0;1mp[0m|[0;1mp[0m|| 2
[32;1m[Board] [0m  -------------------
[32;1m[Board] [0m1 ||[0;1mr[0m|[0;1mk[0m|[0;1mb[0m|[0;1mQ[0m|[0;1mK[0m|[0;1mb[0m|[0;1mk[0m|[0;1mr[0m|| 1
[32;1m[Board] [0m  -------------------
[32;1m[Board] [0m    a b c d e f g h
[32;1m[Board] [0m
[32;1m[Referee] [0mThis is the turn of the Black player...
Initial board:
--------------------
8| r h b q k b h r |
7| p p p p p p p p |
6| . . . . . . . . |
5| . . . . . . . . |
4| . . . . . . . . |
3| . . . . . . . . |
2| P P P P P P P P |
1| R H B Q K B H R |
--------------------
   a b c d e f g h
After reading:
--------------------
8| r h b q k b h r |
7| . p p p p p . p |
6| . . . . . . p . |
5| p . . . . . . . |
4| P . . . P . . . |
3| . . . P . P . . |
2| . P P . . . P P |
1| R H B Q K B H R |
--------------------
   a b c d e f g h
--------------------
8| r h b q k b h r |
7| . p p p p p . p |
6| . . . . . . . . |
5| p . . . . . p . |
4| P . . . P . . . |
3| . . . P . P . . |
2| . P P . . . P P |
1| R H B Q K B H R |
--------------------
   a b c d e f g h
[32;1m[Game] [0mPlayer's error code: 0
[32;1m[Game] [0mChecking move validity...
[32;1m[Board] [0mInitializing board...
[32;1m[Board] [0mLoading history file `championship/lizzie-iii-chess_and_the_city/history.csv`...
[32;1m[Board] [0mLoaded 7 move(s).
[32;1m[Board] [0mLoading move file `championship/lizzie-iii-chess_and_the_city/move.csv`...
[32;1m[Board] [0mBlack player is playing g6 to g5.
[32;1m[Board] [0m
[32;1m[Board] [0m    a b c d e f g h 
[32;1m[Board] [0m  -------------------
[32;1m[Board] [0m8 ||[30;1mr[0m|[30;1mk[0m|[30;1mb[0m|[30;1mQ[0m|[30;1mK[0m|[30;1mb[0m|[30;1mk[0m|[30;1mr[0m|| 8
[32;1m[Board] [0m  -------------------
[32;1m[Board] [0m7 || |[30;1mp[0m|[30;1mp[0m|[30;1mp[0m|[30;1mp[0m|[30;1mp[0m| |[30;1mp[0m|| 7
[32;1m[Board] [0m  -------------------
[32;1m[Board] [0m6 ||[7;1m [0m| |[7;1m [0m| |[7;1m [0m| |[7;1m [0m| || 6
[32;1m[Board] [0m  -------------------
[32;1m[Board] [0m5 ||[30;1mp[0m|[7;1m [0m| |[7;1m [0m| |[7;1m [0m|[30;1mp[0m|[7;1m [0m|| 5
[32;1m[Board] [0m  -------------------
[32;1m[Board] [0m4 ||[0;1mp[0m| |[7;1m [0m| |[0;1mp[0m| |[7;1m [0m| || 4
[32;1m[Board] [0m  -------------------
[32;1m[Board] [0m3 || |[7;1m [0m| |[0;1mp[0m| |[0;1mp[0m| |[7;1m [0m|| 3
[32;1m[Board] [0m  -------------------
[32;1m[Board] [0m2 ||[7;1m [0m|[0;1mp[0m|[0;1mp[0m| |[7;1m [0m| |[0;1mp[0m|[0;1mp[0m|| 2
[32;1m[Board] [0m  -------------------
[32;1m[Board] [0m1 ||[0;1mr[0m|[0;1mk[0m|[0;1mb[0m|[0;1mQ[0m|[0;1mK[0m|[0;1mb[0m|[0;1mk[0m|[0;1mr[0m|| 1
[32;1m[Board] [0m  -------------------
[32;1m[Board] [0m    a b c d e f g h
[32;1m[Board] [0m
[32;1m[Referee] [0mThis is the turn of the White player...
Input file: championship/lizzie-iii-chess_and_the_city/history.csv
Output file: championship/lizzie-iii-chess_and_the_city/move.csv
Turn of: white
Succesful move
f2f3
8 | R N B Q K B N R 
7 | P P P P P P P P 
6 | _ _ _ _ _ _ _ _ 
5 | _ _ _ _ _ _ _ _ 
4 | _ _ _ _ _ _ _ _ 
3 | _ _ _ _ _ P _ _ 
2 | P P P P P _ P P 
1 | R N B Q K B N R 
-------------------
  | A B C D E F G H 

Turn of: black
Succesful move
a7a6
8 | R N B Q K B N R 
7 | _ P P P P P P P 
6 | P _ _ _ _ _ _ _ 
5 | _ _ _ _ _ _ _ _ 
4 | _ _ _ _ _ _ _ _ 
3 | _ _ _ _ _ P _ _ 
2 | P P P P P _ P P 
1 | R N B Q K B N R 
-------------------
  | A B C D E F G H 

Turn of: white
Succesful move
a2a4
8 | R N B Q K B N R 
7 | _ P P P P P P P 
6 | P _ _ _ _ _ _ _ 
5 | _ _ _ _ _ _ _ _ 
4 | P _ _ _ _ _ _ _ 
3 | _ _ _ _ _ P _ _ 
2 | _ P P P P _ P P 
1 | R N B Q K B N R 
-------------------
  | A B C D E F G H 

Turn of: black
Succesful move
a6a5
8 | R N B Q K B N R 
7 | _ P P P P P P P 
6 | _ _ _ _ _ _ _ _ 
5 | P _ _ _ _ _ _ _ 
4 | P _ _ _ _ _ _ _ 
3 | _ _ _ _ _ P _ _ 
2 | _ P P P P _ P P 
1 | R N B Q K B N R 
-------------------
  | A B C D E F G H 

Turn of: white
Succesful move
d2d3
8 | R N B Q K B N R 
7 | _ P P P P P P P 
6 | _ _ _ _ _ _ _ _ 
5 | P _ _ _ _ _ _ _ 
4 | P _ _ _ _ _ _ _ 
3 | _ _ _ P _ P _ _ 
2 | _ P P _ P _ P P 
1 | R N B Q K B N R 
-------------------
  | A B C D E F G H 

Turn of: black
Succesful move
g7g6
8 | R N B Q K B N R 
7 | _ P P P P P _ P 
6 | _ _ _ _ _ _ P _ 
5 | P _ _ _ _ _ _ _ 
4 | P _ _ _ _ _ _ _ 
3 | _ _ _ P _ P _ _ 
2 | _ P P _ P _ P P 
1 | R N B Q K B N R 
-------------------
  | A B C D E F G H 

Turn of: white
Succesful move
e2e4
8 | R N B Q K B N R 
7 | _ P P P P P _ P 
6 | _ _ _ _ _ _ P _ 
5 | P _ _ _ _ _ _ _ 
4 | P _ _ _ P _ _ _ 
3 | _ _ _ P _ P _ _ 
2 | _ P P _ _ _ P P 
1 | R N B Q K B N R 
-------------------
  | A B C D E F G H 

Turn of: black
Succesful move
g6g5
8 | R N B Q K B N R 
7 | _ P P P P P _ P 
6 | _ _ _ _ _ _ _ _ 
5 | P _ _ _ _ _ P _ 
4 | P _ _ _ P _ _ _ 
3 | _ _ _ P _ P _ _ 
2 | _ P P _ _ _ P P 
1 | R N B Q K B N R 
-------------------
  | A B C D E F G H 

We are playing as White
Move history:
f2f3
a7a6
a2a4
a6a5
d2d3
g7g6
e2e4
g6g5
8 | R N B Q K B N R 
7 | _ P P P P P _ P 
6 | _ _ _ _ _ _ _ _ 
5 | P _ _ _ _ _ P _ 
4 | P _ _ _ P _ _ _ 
3 | _ _ _ P _ P _ _ 
2 | _ P P _ _ _ P P 
1 | R N B Q K B N R 
-------------------
  | A B C D E F G H 

It is white's turn to play.
AI's move: b2b4
Move written: b2b4
[32;1m[Game] [0mPlayer's error code: 0
[32;1m[Game] [0mChecking move validity...
[32;1m[Board] [0mInitializing board...
[32;1m[Board] [0mLoading history file `championship/lizzie-iii-chess_and_the_city/history.csv`...
[32;1m[Board] [0mLoaded 8 move(s).
[32;1m[Board] [0mLoading move file `championship/lizzie-iii-chess_and_the_city/move.csv`...
[32;1m[Board] [0mWhite player is playing b2 to b4.
[32;1m[Board] [0m
[32;1m[Board] [0m    a b c d e f g h 
[32;1m[Board] [0m  -------------------
[32;1m[Board] [0m8 ||[30;1mr[0m|[30;1mk[0m|[30;1mb[0m|[30;1mQ[0m|[30;1mK[0m|[30;1mb[0m|[30;1mk[0m|[30;1mr[0m|| 8
[32;1m[Board] [0m  -------------------
[32;1m[Board] [0m7 || |[30;1mp[0m|[30;1mp[0m|[30;1mp[0m|[30;1mp[0m|[30;1mp[0m| |[30;1mp[0m|| 7
[32;1m[Board] [0m  -------------------
[32;1m[Board] [0m6 ||[7;1m [0m| |[7;1m [0m| |[7;1m [0m| |[7;1m [0m| || 6
[32;1m[Board] [0m  -------------------
[32;1m[Board] [0m5 ||[30;1mp[0m|[7;1m [0m| |[7;1m [0m| |[7;1m [0m|[30;1mp[0m|[7;1m [0m|| 5
[32;1m[Board] [0m  -------------------
[32;1m[Board] [0m4 ||[0;1mp[0m|[0;1mp[0m|[7;1m [0m| |[0;1mp[0m| |[7;1m [0m| || 4
[32;1m[Board] [0m  -------------------
[32;1m[Board] [0m3 || |[7;1m [0m| |[0;1mp[0m| |[0;1mp[0m| |[7;1m [0m|| 3
[32;1m[Board] [0m  -------------------
[32;1m[Board] [0m2 ||[7;1m [0m| |[0;1mp[0m| |[7;1m [0m| |[0;1mp[0m|[0;1mp[0m|| 2
[32;1m[Board] [0m  -------------------
[32;1m[Board] [0m1 ||[0;1mr[0m|[0;1mk[0m|[0;1mb[0m|[0;1mQ[0m|[0;1mK[0m|[0;1mb[0m|[0;1mk[0m|[0;1mr[0m|| 1
[32;1m[Board] [0m  -------------------
[32;1m[Board] [0m    a b c d e f g h
[32;1m[Board] [0m
[32;1m[Referee] [0mThis is the turn of the Black player...
Initial board:
--------------------
8| r h b q k b h r |
7| p p p p p p p p |
6| . . . . . . . . |
5| . . . . . . . . |
4| . . . . . . . . |
3| . . . . . . . . |
2| P P P P P P P P |
1| R H B Q K B H R |
--------------------
   a b c d e f g h
After reading:
--------------------
8| r h b q k b h r |
7| . p p p p p . p |
6| . . . . . . . . |
5| p . . . . . p . |
4| P P . . P . . . |
3| . . . P . P . . |
2| . . P . . . P P |
1| R H B Q K B H R |
--------------------
   a b c d e f g h
--------------------
8| r h b q k b h r |
7| . p p p p p . p |
6| . . . . . . . . |
5| . . . . . . p . |
4| P p . . P . . . |
3| . . . P . P . . |
2| . . P . . . P P |
1| R H B Q K B H R |
--------------------
   a b c d e f g h
[32;1m[Game] [0mPlayer's error code: 0
[32;1m[Game] [0mChecking move validity...
[32;1m[Board] [0mInitializing board...
[32;1m[Board] [0mLoading history file `championship/lizzie-iii-chess_and_the_city/history.csv`...
[32;1m[Board] [0mLoaded 9 move(s).
[32;1m[Board] [0mLoading move file `championship/lizzie-iii-chess_and_the_city/move.csv`...
[32;1m[Board] [0mBlack player is playing a5 to b4.
[32;1m[Board] [0m[5;1mBlack Pawn is taking White Pawn.[0m
[32;1m[Board] [0m
[32;1m[Board] [0m    a b c d e f g h 
[32;1m[Board] [0m  -------------------
[32;1m[Board] [0m8 ||[30;1mr[0m|[30;1mk[0m|[30;1mb[0m|[30;1mQ[0m|[30;1mK[0m|[30;1mb[0m|[30;1mk[0m|[30;1mr[0m|| 8
[32;1m[Board] [0m  -------------------
[32;1m[Board] [0m7 || |[30;1mp[0m|[30;1mp[0m|[30;1mp[0m|[30;1mp[0m|[30;1mp[0m| |[30;1mp[0m|| 7
[32;1m[Board] [0m  -------------------
[32;1m[Board] [0m6 ||[7;1m [0m| |[7;1m [0m| |[7;1m [0m| |[7;1m [0m| || 6
[32;1m[Board] [0m  -------------------
[32;1m[Board] [0m5 || |[7;1m [0m| |[7;1m [0m| |[7;1m [0m|[30;1mp[0m|[7;1m [0m|| 5
[32;1m[Board] [0m  -------------------
[32;1m[Board] [0m4 ||[0;1mp[0m|[30;1mp[0m|[7;1m [0m| |[0;1mp[0m| |[7;1m [0m| || 4
[32;1m[Board] [0m  -------------------
[32;1m[Board] [0m3 || |[7;1m [0m| |[0;1mp[0m| |[0;1mp[0m| |[7;1m [0m|| 3
[32;1m[Board] [0m  -------------------
[32;1m[Board] [0m2 ||[7;1m [0m| |[0;1mp[0m| |[7;1m [0m| |[0;1mp[0m|[0;1mp[0m|| 2
[32;1m[Board] [0m  -------------------
[32;1m[Board] [0m1 ||[0;1mr[0m|[0;1mk[0m|[0;1mb[0m|[0;1mQ[0m|[0;1mK[0m|[0;1mb[0m|[0;1mk[0m|[0;1mr[0m|| 1
[32;1m[Board] [0m  -------------------
[32;1m[Board] [0m    a b c d e f g h
[32;1m[Board] [0m
[32;1m[Referee] [0mThis is the turn of the White player...
Input file: championship/lizzie-iii-chess_and_the_city/history.csv
Output file: championship/lizzie-iii-chess_and_the_city/move.csv
Turn of: white
Succesful move
f2f3
8 | R N B Q K B N R 
7 | P P P P P P P P 
6 | _ _ _ _ _ _ _ _ 
5 | _ _ _ _ _ _ _ _ 
4 | _ _ _ _ _ _ _ _ 
3 | _ _ _ _ _ P _ _ 
2 | P P P P P _ P P 
1 | R N B Q K B N R 
-------------------
  | A B C D E F G H 

Turn of: black
Succesful move
a7a6
8 | R N B Q K B N R 
7 | _ P P P P P P P 
6 | P _ _ _ _ _ _ _ 
5 | _ _ _ _ _ _ _ _ 
4 | _ _ _ _ _ _ _ _ 
3 | _ _ _ _ _ P _ _ 
2 | P P P P P _ P P 
1 | R N B Q K B N R 
-------------------
  | A B C D E F G H 

Turn of: white
Succesful move
a2a4
8 | R N B Q K B N R 
7 | _ P P P P P P P 
6 | P _ _ _ _ _ _ _ 
5 | _ _ _ _ _ _ _ _ 
4 | P _ _ _ _ _ _ _ 
3 | _ _ _ _ _ P _ _ 
2 | _ P P P P _ P P 
1 | R N B Q K B N R 
-------------------
  | A B C D E F G H 

Turn of: black
Succesful move
a6a5
8 | R N B Q K B N R 
7 | _ P P P P P P P 
6 | _ _ _ _ _ _ _ _ 
5 | P _ _ _ _ _ _ _ 
4 | P _ _ _ _ _ _ _ 
3 | _ _ _ _ _ P _ _ 
2 | _ P P P P _ P P 
1 | R N B Q K B N R 
-------------------
  | A B C D E F G H 

Turn of: white
Succesful move
d2d3
8 | R N B Q K B N R 
7 | _ P P P P P P P 
6 | _ _ _ _ _ _ _ _ 
5 | P _ _ _ _ _ _ _ 
4 | P _ _ _ _ _ _ _ 
3 | _ _ _ P _ P _ _ 
2 | _ P P _ P _ P P 
1 | R N B Q K B N R 
-------------------
  | A B C D E F G H 

Turn of: black
Succesful move
g7g6
8 | R N B Q K B N R 
7 | _ P P P P P _ P 
6 | _ _ _ _ _ _ P _ 
5 | P _ _ _ _ _ _ _ 
4 | P _ _ _ _ _ _ _ 
3 | _ _ _ P _ P _ _ 
2 | _ P P _ P _ P P 
1 | R N B Q K B N R 
-------------------
  | A B C D E F G H 

Turn of: white
Succesful move
e2e4
8 | R N B Q K B N R 
7 | _ P P P P P _ P 
6 | _ _ _ _ _ _ P _ 
5 | P _ _ _ _ _ _ _ 
4 | P _ _ _ P _ _ _ 
3 | _ _ _ P _ P _ _ 
2 | _ P P _ _ _ P P 
1 | R N B Q K B N R 
-------------------
  | A B C D E F G H 

Turn of: black
Succesful move
g6g5
8 | R N B Q K B N R 
7 | _ P P P P P _ P 
6 | _ _ _ _ _ _ _ _ 
5 | P _ _ _ _ _ P _ 
4 | P _ _ _ P _ _ _ 
3 | _ _ _ P _ P _ _ 
2 | _ P P _ _ _ P P 
1 | R N B Q K B N R 
-------------------
  | A B C D E F G H 

Turn of: white
Succesful move
b2b4
8 | R N B Q K B N R 
7 | _ P P P P P _ P 
6 | _ _ _ _ _ _ _ _ 
5 | P _ _ _ _ _ P _ 
4 | P P _ _ P _ _ _ 
3 | _ _ _ P _ P _ _ 
2 | _ _ P _ _ _ P P 
1 | R N B Q K B N R 
-------------------
  | A B C D E F G H 

Turn of: black
Succesful move
a5b4
8 | R N B Q K B N R 
7 | _ P P P P P _ P 
6 | _ _ _ _ _ _ _ _ 
5 | _ _ _ _ _ _ P _ 
4 | P P _ _ P _ _ _ 
3 | _ _ _ P _ P _ _ 
2 | _ _ P _ _ _ P P 
1 | R N B Q K B N R 
-------------------
  | A B C D E F G H 

We are playing as White
Move history:
f2f3
a7a6
a2a4
a6a5
d2d3
g7g6
e2e4
g6g5
b2b4
a5b4
8 | R N B Q K B N R 
7 | _ P P P P P _ P 
6 | _ _ _ _ _ _ _ _ 
5 | _ _ _ _ _ _ P _ 
4 | P P _ _ P _ _ _ 
3 | _ _ _ P _ P _ _ 
2 | _ _ P _ _ _ P P 
1 | R N B Q K B N R 
-------------------
  | A B C D E F G H 

It is white's turn to play.
AI's move: c2c3
Move written: c2c3
[32;1m[Game] [0mPlayer's error code: 0
[32;1m[Game] [0mChecking move validity...
[32;1m[Board] [0mInitializing board...
[32;1m[Board] [0mLoading history file `championship/lizzie-iii-chess_and_the_city/history.csv`...
[32;1m[Board] [0mLoaded 10 move(s).
[32;1m[Board] [0mLoading move file `championship/lizzie-iii-chess_and_the_city/move.csv`...
[32;1m[Board] [0mWhite player is playing c2 to c3.
[32;1m[Board] [0m
[32;1m[Board] [0m    a b c d e f g h 
[32;1m[Board] [0m  -------------------
[32;1m[Board] [0m8 ||[30;1mr[0m|[30;1mk[0m|[30;1mb[0m|[30;1mQ[0m|[30;1mK[0m|[30;1mb[0m|[30;1mk[0m|[30;1mr[0m|| 8
[32;1m[Board] [0m  -------------------
[32;1m[Board] [0m7 || |[30;1mp[0m|[30;1mp[0m|[30;1mp[0m|[30;1mp[0m|[30;1mp[0m| |[30;1mp[0m|| 7
[32;1m[Board] [0m  -------------------
[32;1m[Board] [0m6 ||[7;1m [0m| |[7;1m [0m| |[7;1m [0m| |[7;1m [0m| || 6
[32;1m[Board] [0m  -------------------
[32;1m[Board] [0m5 || |[7;1m [0m| |[7;1m [0m| |[7;1m [0m|[30;1mp[0m|[7;1m [0m|| 5
[32;1m[Board] [0m  -------------------
[32;1m[Board] [0m4 ||[0;1mp[0m|[30;1mp[0m|[7;1m [0m| |[0;1mp[0m| |[7;1m [0m| || 4
[32;1m[Board] [0m  -------------------
[32;1m[Board] [0m3 || |[7;1m [0m|[0;1mp[0m|[0;1mp[0m| |[0;1mp[0m| |[7;1m [0m|| 3
[32;1m[Board] [0m  -------------------
[32;1m[Board] [0m2 ||[7;1m [0m| |[7;1m [0m| |[7;1m [0m| |[0;1mp[0m|[0;1mp[0m|| 2
[32;1m[Board] [0m  -------------------
[32;1m[Board] [0m1 ||[0;1mr[0m|[0;1mk[0m|[0;1mb[0m|[0;1mQ[0m|[0;1mK[0m|[0;1mb[0m|[0;1mk[0m|[0;1mr[0m|| 1
[32;1m[Board] [0m  -------------------
[32;1m[Board] [0m    a b c d e f g h
[32;1m[Board] [0m
[32;1m[Referee] [0mThis is the turn of the Black player...
Initial board:
--------------------
8| r h b q k b h r |
7| p p p p p p p p |
6| . . . . . . . . |
5| . . . . . . . . |
4| . . . . . . . . |
3| . . . . . . . . |
2| P P P P P P P P |
1| R H B Q K B H R |
--------------------
   a b c d e f g h
After reading:
--------------------
8| r h b q k b h r |
7| . p p p p p . p |
6| . . . . . . . . |
5| . . . . . . p . |
4| P p . . P . . . |
3| . . P P . P . . |
2| . . . . . . P P |
1| R H B Q K B H R |
--------------------
   a b c d e f g h
--------------------
8| . h b q k b h r |
7| . p p p p p . p |
6| . . . . . . . . |
5| . . . . . . p . |
4| r p . . P . . . |
3| . . P P . P . . |
2| . . . . . . P P |
1| R H B Q K B H R |
--------------------
   a b c d e f g h
[32;1m[Game] [0mPlayer's error code: 0
[32;1m[Game] [0mChecking move validity...
[32;1m[Board] [0mInitializing board...
[32;1m[Board] [0mLoading history file `championship/lizzie-iii-chess_and_the_city/history.csv`...
[32;1m[Board] [0mLoaded 11 move(s).
[32;1m[Board] [0mLoading move file `championship/lizzie-iii-chess_and_the_city/move.csv`...
[32;1m[Board] [0mBlack player is playing a8 to a4.
[32;1m[Board] [0m[5;1mBlack Rook is taking White Pawn.[0m
[32;1m[Board] [0m
[32;1m[Board] [0m    a b c d e f g h 
[32;1m[Board] [0m  -------------------
[32;1m[Board] [0m8 ||[7;1m [0m|[30;1mk[0m|[30;1mb[0m|[30;1mQ[0m|[30;1mK[0m|[30;1mb[0m|[30;1mk[0m|[30;1mr[0m|| 8
[32;1m[Board] [0m  -------------------
[32;1m[Board] [0m7 || |[30;1mp[0m|[30;1mp[0m|[30;1mp[0m|[30;1mp[0m|[30;1mp[0m| |[30;1mp[0m|| 7
[32;1m[Board] [0m  -------------------
[32;1m[Board] [0m6 ||[7;1m [0m| |[7;1m [0m| |[7;1m [0m| |[7;1m [0m| || 6
[32;1m[Board] [0m  -------------------
[32;1m[Board] [0m5 || |[7;1m [0m| |[7;1m [0m| |[7;1m [0m|[30;1mp[0m|[7;1m [0m|| 5
[32;1m[Board] [0m  -------------------
[32;1m[Board] [0m4 ||[30;1mr[0m|[30;1mp[0m|[7;1m [0m| |[0;1mp[0m| |[7;1m [0m| || 4
[32;1m[Board] [0m  -------------------
[32;1m[Board] [0m3 || |[7;1m [0m|[0;1mp[0m|[0;1mp[0m| |[0;1mp[0m| |[7;1m [0m|| 3
[32;1m[Board] [0m  -------------------
[32;1m[Board] [0m2 ||[7;1m [0m| |[7;1m [0m| |[7;1m [0m| |[0;1mp[0m|[0;1mp[0m|| 2
[32;1m[Board] [0m  -------------------
[32;1m[Board] [0m1 ||[0;1mr[0m|[0;1mk[0m|[0;1mb[0m|[0;1mQ[0m|[0;1mK[0m|[0;1mb[0m|[0;1mk[0m|[0;1mr[0m|| 1
[32;1m[Board] [0m  -------------------
[32;1m[Board] [0m    a b c d e f g h
[32;1m[Board] [0m
[32;1m[Referee] [0mThis is the turn of the White player...
Input file: championship/lizzie-iii-chess_and_the_city/history.csv
Output file: championship/lizzie-iii-chess_and_the_city/move.csv
Turn of: white
Succesful move
f2f3
8 | R N B Q K B N R 
7 | P P P P P P P P 
6 | _ _ _ _ _ _ _ _ 
5 | _ _ _ _ _ _ _ _ 
4 | _ _ _ _ _ _ _ _ 
3 | _ _ _ _ _ P _ _ 
2 | P P P P P _ P P 
1 | R N B Q K B N R 
-------------------
  | A B C D E F G H 

Turn of: black
Succesful move
a7a6
8 | R N B Q K B N R 
7 | _ P P P P P P P 
6 | P _ _ _ _ _ _ _ 
5 | _ _ _ _ _ _ _ _ 
4 | _ _ _ _ _ _ _ _ 
3 | _ _ _ _ _ P _ _ 
2 | P P P P P _ P P 
1 | R N B Q K B N R 
-------------------
  | A B C D E F G H 

Turn of: white
Succesful move
a2a4
8 | R N B Q K B N R 
7 | _ P P P P P P P 
6 | P _ _ _ _ _ _ _ 
5 | _ _ _ _ _ _ _ _ 
4 | P _ _ _ _ _ _ _ 
3 | _ _ _ _ _ P _ _ 
2 | _ P P P P _ P P 
1 | R N B Q K B N R 
-------------------
  | A B C D E F G H 

Turn of: black
Succesful move
a6a5
8 | R N B Q K B N R 
7 | _ P P P P P P P 
6 | _ _ _ _ _ _ _ _ 
5 | P _ _ _ _ _ _ _ 
4 | P _ _ _ _ _ _ _ 
3 | _ _ _ _ _ P _ _ 
2 | _ P P P P _ P P 
1 | R N B Q K B N R 
-------------------
  | A B C D E F G H 

Turn of: white
Succesful move
d2d3
8 | R N B Q K B N R 
7 | _ P P P P P P P 
6 | _ _ _ _ _ _ _ _ 
5 | P _ _ _ _ _ _ _ 
4 | P _ _ _ _ _ _ _ 
3 | _ _ _ P _ P _ _ 
2 | _ P P _ P _ P P 
1 | R N B Q K B N R 
-------------------
  | A B C D E F G H 

Turn of: black
Succesful move
g7g6
8 | R N B Q K B N R 
7 | _ P P P P P _ P 
6 | _ _ _ _ _ _ P _ 
5 | P _ _ _ _ _ _ _ 
4 | P _ _ _ _ _ _ _ 
3 | _ _ _ P _ P _ _ 
2 | _ P P _ P _ P P 
1 | R N B Q K B N R 
-------------------
  | A B C D E F G H 

Turn of: white
Succesful move
e2e4
8 | R N B Q K B N R 
7 | _ P P P P P _ P 
6 | _ _ _ _ _ _ P _ 
5 | P _ _ _ _ _ _ _ 
4 | P _ _ _ P _ _ _ 
3 | _ _ _ P _ P _ _ 
2 | _ P P _ _ _ P P 
1 | R N B Q K B N R 
-------------------
  | A B C D E F G H 

Turn of: black
Succesful move
g6g5
8 | R N B Q K B N R 
7 | _ P P P P P _ P 
6 | _ _ _ _ _ _ _ _ 
5 | P _ _ _ _ _ P _ 
4 | P _ _ _ P _ _ _ 
3 | _ _ _ P _ P _ _ 
2 | _ P P _ _ _ P P 
1 | R N B Q K B N R 
-------------------
  | A B C D E F G H 

Turn of: white
Succesful move
b2b4
8 | R N B Q K B N R 
7 | _ P P P P P _ P 
6 | _ _ _ _ _ _ _ _ 
5 | P _ _ _ _ _ P _ 
4 | P P _ _ P _ _ _ 
3 | _ _ _ P _ P _ _ 
2 | _ _ P _ _ _ P P 
1 | R N B Q K B N R 
-------------------
  | A B C D E F G H 

Turn of: black
Succesful move
a5b4
8 | R N B Q K B N R 
7 | _ P P P P P _ P 
6 | _ _ _ _ _ _ _ _ 
5 | _ _ _ _ _ _ P _ 
4 | P P _ _ P _ _ _ 
3 | _ _ _ P _ P _ _ 
2 | _ _ P _ _ _ P P 
1 | R N B Q K B N R 
-------------------
  | A B C D E F G H 

Turn of: white
Succesful move
c2c3
8 | R N B Q K B N R 
7 | _ P P P P P _ P 
6 | _ _ _ _ _ _ _ _ 
5 | _ _ _ _ _ _ P _ 
4 | P P _ _ P _ _ _ 
3 | _ _ P P _ P _ _ 
2 | _ _ _ _ _ _ P P 
1 | R N B Q K B N R 
-------------------
  | A B C D E F G H 

Turn of: black
Succesful move
a8a4
8 | _ N B Q K B N R 
7 | _ P P P P P _ P 
6 | _ _ _ _ _ _ _ _ 
5 | _ _ _ _ _ _ P _ 
4 | R P _ _ P _ _ _ 
3 | _ _ P P _ P _ _ 
2 | _ _ _ _ _ _ P P 
1 | R N B Q K B N R 
-------------------
  | A B C D E F G H 

We are playing as White
Move history:
f2f3
a7a6
a2a4
a6a5
d2d3
g7g6
e2e4
g6g5
b2b4
a5b4
c2c3
a8a4
8 | _ N B Q K B N R 
7 | _ P P P P P _ P 
6 | _ _ _ _ _ _ _ _ 
5 | _ _ _ _ _ _ P _ 
4 | R P _ _ P _ _ _ 
3 | _ _ P P _ P _ _ 
2 | _ _ _ _ _ _ P P 
1 | R N B Q K B N R 
-------------------
  | A B C D E F G H 

It is white's turn to play.
AI's move: g1h3
Move written: g1h3
[32;1m[Game] [0mPlayer's error code: 0
[32;1m[Game] [0mChecking move validity...
[32;1m[Board] [0mInitializing board...
[32;1m[Board] [0mLoading history file `championship/lizzie-iii-chess_and_the_city/history.csv`...
[32;1m[Board] [0mLoaded 12 move(s).
[32;1m[Board] [0mLoading move file `championship/lizzie-iii-chess_and_the_city/move.csv`...
[32;1m[Board] [0mWhite player is playing g1 to h3.
[32;1m[Board] [0m
[32;1m[Board] [0m    a b c d e f g h 
[32;1m[Board] [0m  -------------------
[32;1m[Board] [0m8 ||[7;1m [0m|[30;1mk[0m|[30;1mb[0m|[30;1mQ[0m|[30;1mK[0m|[30;1mb[0m|[30;1mk[0m|[30;1mr[0m|| 8
[32;1m[Board] [0m  -------------------
[32;1m[Board] [0m7 || |[30;1mp[0m|[30;1mp[0m|[30;1mp[0m|[30;1mp[0m|[30;1mp[0m| |[30;1mp[0m|| 7
[32;1m[Board] [0m  -------------------
[32;1m[Board] [0m6 ||[7;1m [0m| |[7;1m [0m| |[7;1m [0m| |[7;1m [0m| || 6
[32;1m[Board] [0m  -------------------
[32;1m[Board] [0m5 || |[7;1m [0m| |[7;1m [0m| |[7;1m [0m|[30;1mp[0m|[7;1m [0m|| 5
[32;1m[Board] [0m  -------------------
[32;1m[Board] [0m4 ||[30;1mr[0m|[30;1mp[0m|[7;1m [0m| |[0;1mp[0m| |[7;1m [0m| || 4
[32;1m[Board] [0m  -------------------
[32;1m[Board] [0m3 || |[7;1m [0m|[0;1mp[0m|[0;1mp[0m| |[0;1mp[0m| |[0;1mk[0m|| 3
[32;1m[Board] [0m  -------------------
[32;1m[Board] [0m2 ||[7;1m [0m| |[7;1m [0m| |[7;1m [0m| |[0;1mp[0m|[0;1mp[0m|| 2
[32;1m[Board] [0m  -------------------
[32;1m[Board] [0m1 ||[0;1mr[0m|[0;1mk[0m|[0;1mb[0m|[0;1mQ[0m|[0;1mK[0m|[0;1mb[0m| |[0;1mr[0m|| 1
[32;1m[Board] [0m  -------------------
[32;1m[Board] [0m    a b c d e f g h
[32;1m[Board] [0m
[32;1m[Referee] [0mThis is the turn of the Black player...
Initial board:
--------------------
8| r h b q k b h r |
7| p p p p p p p p |
6| . . . . . . . . |
5| . . . . . . . . |
4| . . . . . . . . |
3| . . . . . . . . |
2| P P P P P P P P |
1| R H B Q K B H R |
--------------------
   a b c d e f g h
After reading:
--------------------
8| . h b q k b h r |
7| . p p p p p . p |
6| . . . . . . . . |
5| . . . . . . p . |
4| r p . . P . . . |
3| . . P P . P . H |
2| . . . . . . P P |
1| R H B Q K B . R |
--------------------
   a b c d e f g h
--------------------
8| . h b q k b h r |
7| . p p p p p . p |
6| . . . . . . . . |
5| . . . . . . p . |
4| . p . . P . . . |
3| . . P P . P . H |
2| . . . . . . P P |
1| r H B Q K B . R |
--------------------
   a b c d e f g h
[32;1m[Game] [0mPlayer's error code: 0
[32;1m[Game] [0mChecking move validity...
[32;1m[Board] [0mInitializing board...
[32;1m[Board] [0mLoading history file `championship/lizzie-iii-chess_and_the_city/history.csv`...
[32;1m[Board] [0mLoaded 13 move(s).
[32;1m[Board] [0mLoading move file `championship/lizzie-iii-chess_and_the_city/move.csv`...
[32;1m[Board] [0mBlack player is playing a4 to a1.
[32;1m[Board] [0m[5;1mBlack Rook is taking White Rook.[0m
[32;1m[Board] [0m
[32;1m[Board] [0m    a b c d e f g h 
[32;1m[Board] [0m  -------------------
[32;1m[Board] [0m8 ||[7;1m [0m|[30;1mk[0m|[30;1mb[0m|[30;1mQ[0m|[30;1mK[0m|[30;1mb[0m|[30;1mk[0m|[30;1mr[0m|| 8
[32;1m[Board] [0m  -------------------
[32;1m[Board] [0m7 || |[30;1mp[0m|[30;1mp[0m|[30;1mp[0m|[30;1mp[0m|[30;1mp[0m| |[30;1mp[0m|| 7
[32;1m[Board] [0m  -------------------
[32;1m[Board] [0m6 ||[7;1m [0m| |[7;1m [0m| |[7;1m [0m| |[7;1m [0m| || 6
[32;1m[Board] [0m  -------------------
[32;1m[Board] [0m5 || |[7;1m [0m| |[7;1m [0m| |[7;1m [0m|[30;1mp[0m|[7;1m [0m|| 5
[32;1m[Board] [0m  -------------------
[32;1m[Board] [0m4 ||[7;1m [0m|[30;1mp[0m|[7;1m [0m| |[0;1mp[0m| |[7;1m [0m| || 4
[32;1m[Board] [0m  -------------------
[32;1m[Board] [0m3 || |[7;1m [0m|[0;1mp[0m|[0;1mp[0m| |[0;1mp[0m| |[0;1mk[0m|| 3
[32;1m[Board] [0m  -------------------
[32;1m[Board] [0m2 ||[7;1m [0m| |[7;1m [0m| |[7;1m [0m| |[0;1mp[0m|[0;1mp[0m|| 2
[32;1m[Board] [0m  -------------------
[32;1m[Board] [0m1 ||[30;1mr[0m|[0;1mk[0m|[0;1mb[0m|[0;1mQ[0m|[0;1mK[0m|[0;1mb[0m| |[0;1mr[0m|| 1
[32;1m[Board] [0m  -------------------
[32;1m[Board] [0m    a b c d e f g h
[32;1m[Board] [0m
[32;1m[Referee] [0mThis is the turn of the White player...
Input file: championship/lizzie-iii-chess_and_the_city/history.csv
Output file: championship/lizzie-iii-chess_and_the_city/move.csv
Turn of: white
Succesful move
f2f3
8 | R N B Q K B N R 
7 | P P P P P P P P 
6 | _ _ _ _ _ _ _ _ 
5 | _ _ _ _ _ _ _ _ 
4 | _ _ _ _ _ _ _ _ 
3 | _ _ _ _ _ P _ _ 
2 | P P P P P _ P P 
1 | R N B Q K B N R 
-------------------
  | A B C D E F G H 

Turn of: black
Succesful move
a7a6
8 | R N B Q K B N R 
7 | _ P P P P P P P 
6 | P _ _ _ _ _ _ _ 
5 | _ _ _ _ _ _ _ _ 
4 | _ _ _ _ _ _ _ _ 
3 | _ _ _ _ _ P _ _ 
2 | P P P P P _ P P 
1 | R N B Q K B N R 
-------------------
  | A B C D E F G H 

Turn of: white
Succesful move
a2a4
8 | R N B Q K B N R 
7 | _ P P P P P P P 
6 | P _ _ _ _ _ _ _ 
5 | _ _ _ _ _ _ _ _ 
4 | P _ _ _ _ _ _ _ 
3 | _ _ _ _ _ P _ _ 
2 | _ P P P P _ P P 
1 | R N B Q K B N R 
-------------------
  | A B C D E F G H 

Turn of: black
Succesful move
a6a5
8 | R N B Q K B N R 
7 | _ P P P P P P P 
6 | _ _ _ _ _ _ _ _ 
5 | P _ _ _ _ _ _ _ 
4 | P _ _ _ _ _ _ _ 
3 | _ _ _ _ _ P _ _ 
2 | _ P P P P _ P P 
1 | R N B Q K B N R 
-------------------
  | A B C D E F G H 

Turn of: white
Succesful move
d2d3
8 | R N B Q K B N R 
7 | _ P P P P P P P 
6 | _ _ _ _ _ _ _ _ 
5 | P _ _ _ _ _ _ _ 
4 | P _ _ _ _ _ _ _ 
3 | _ _ _ P _ P _ _ 
2 | _ P P _ P _ P P 
1 | R N B Q K B N R 
-------------------
  | A B C D E F G H 

Turn of: black
Succesful move
g7g6
8 | R N B Q K B N R 
7 | _ P P P P P _ P 
6 | _ _ _ _ _ _ P _ 
5 | P _ _ _ _ _ _ _ 
4 | P _ _ _ _ _ _ _ 
3 | _ _ _ P _ P _ _ 
2 | _ P P _ P _ P P 
1 | R N B Q K B N R 
-------------------
  | A B C D E F G H 

Turn of: white
Succesful move
e2e4
8 | R N B Q K B N R 
7 | _ P P P P P _ P 
6 | _ _ _ _ _ _ P _ 
5 | P _ _ _ _ _ _ _ 
4 | P _ _ _ P _ _ _ 
3 | _ _ _ P _ P _ _ 
2 | _ P P _ _ _ P P 
1 | R N B Q K B N R 
-------------------
  | A B C D E F G H 

Turn of: black
Succesful move
g6g5
8 | R N B Q K B N R 
7 | _ P P P P P _ P 
6 | _ _ _ _ _ _ _ _ 
5 | P _ _ _ _ _ P _ 
4 | P _ _ _ P _ _ _ 
3 | _ _ _ P _ P _ _ 
2 | _ P P _ _ _ P P 
1 | R N B Q K B N R 
-------------------
  | A B C D E F G H 

Turn of: white
Succesful move
b2b4
8 | R N B Q K B N R 
7 | _ P P P P P _ P 
6 | _ _ _ _ _ _ _ _ 
5 | P _ _ _ _ _ P _ 
4 | P P _ _ P _ _ _ 
3 | _ _ _ P _ P _ _ 
2 | _ _ P _ _ _ P P 
1 | R N B Q K B N R 
-------------------
  | A B C D E F G H 

Turn of: black
Succesful move
a5b4
8 | R N B Q K B N R 
7 | _ P P P P P _ P 
6 | _ _ _ _ _ _ _ _ 
5 | _ _ _ _ _ _ P _ 
4 | P P _ _ P _ _ _ 
3 | _ _ _ P _ P _ _ 
2 | _ _ P _ _ _ P P 
1 | R N B Q K B N R 
-------------------
  | A B C D E F G H 

Turn of: white
Succesful move
c2c3
8 | R N B Q K B N R 
7 | _ P P P P P _ P 
6 | _ _ _ _ _ _ _ _ 
5 | _ _ _ _ _ _ P _ 
4 | P P _ _ P _ _ _ 
3 | _ _ P P _ P _ _ 
2 | _ _ _ _ _ _ P P 
1 | R N B Q K B N R 
-------------------
  | A B C D E F G H 

Turn of: black
Succesful move
a8a4
8 | _ N B Q K B N R 
7 | _ P P P P P _ P 
6 | _ _ _ _ _ _ _ _ 
5 | _ _ _ _ _ _ P _ 
4 | R P _ _ P _ _ _ 
3 | _ _ P P _ P _ _ 
2 | _ _ _ _ _ _ P P 
1 | R N B Q K B N R 
-------------------
  | A B C D E F G H 

Turn of: white
Succesful move
g1h3
8 | _ N B Q K B N R 
7 | _ P P P P P _ P 
6 | _ _ _ _ _ _ _ _ 
5 | _ _ _ _ _ _ P _ 
4 | R P _ _ P _ _ _ 
3 | _ _ P P _ P _ N 
2 | _ _ _ _ _ _ P P 
1 | R N B Q K B _ R 
-------------------
  | A B C D E F G H 

Turn of: black
Succesful move
a4a1
8 | _ N B Q K B N R 
7 | _ P P P P P _ P 
6 | _ _ _ _ _ _ _ _ 
5 | _ _ _ _ _ _ P _ 
4 | _ P _ _ P _ _ _ 
3 | _ _ P P _ P _ N 
2 | _ _ _ _ _ _ P P 
1 | R N B Q K B _ R 
-------------------
  | A B C D E F G H 

We are playing as White
Move history:
f2f3
a7a6
a2a4
a6a5
d2d3
g7g6
e2e4
g6g5
b2b4
a5b4
c2c3
a8a4
g1h3
a4a1
8 | _ N B Q K B N R 
7 | _ P P P P P _ P 
6 | _ _ _ _ _ _ _ _ 
5 | _ _ _ _ _ _ P _ 
4 | _ P _ _ P _ _ _ 
3 | _ _ P P _ P _ N 
2 | _ _ _ _ _ _ P P 
1 | R N B Q K B _ R 
-------------------
  | A B C D E F G H 

It is white's turn to play.
AI's move: h3f2
Move written: h3f2
[32;1m[Game] [0mPlayer's error code: 0
[32;1m[Game] [0mChecking move validity...
[32;1m[Board] [0mInitializing board...
[32;1m[Board] [0mLoading history file `championship/lizzie-iii-chess_and_the_city/history.csv`...
[32;1m[Board] [0mLoaded 14 move(s).
[32;1m[Board] [0mLoading move file `championship/lizzie-iii-chess_and_the_city/move.csv`...
[32;1m[Board] [0mWhite player is playing h3 to f2.
[32;1m[Board] [0m
[32;1m[Board] [0m    a b c d e f g h 
[32;1m[Board] [0m  -------------------
[32;1m[Board] [0m8 ||[7;1m [0m|[30;1mk[0m|[30;1mb[0m|[30;1mQ[0m|[30;1mK[0m|[30;1mb[0m|[30;1mk[0m|[30;1mr[0m|| 8
[32;1m[Board] [0m  -------------------
[32;1m[Board] [0m7 || |[30;1mp[0m|[30;1mp[0m|[30;1mp[0m|[30;1mp[0m|[30;1mp[0m| |[30;1mp[0m|| 7
[32;1m[Board] [0m  -------------------
[32;1m[Board] [0m6 ||[7;1m [0m| |[7;1m [0m| |[7;1m [0m| |[7;1m [0m| || 6
[32;1m[Board] [0m  -------------------
[32;1m[Board] [0m5 || |[7;1m [0m| |[7;1m [0m| |[7;1m [0m|[30;1mp[0m|[7;1m [0m|| 5
[32;1m[Board] [0m  -------------------
[32;1m[Board] [0m4 ||[7;1m [0m|[30;1mp[0m|[7;1m [0m| |[0;1mp[0m| |[7;1m [0m| || 4
[32;1m[Board] [0m  -------------------
[32;1m[Board] [0m3 || |[7;1m [0m|[0;1mp[0m|[0;1mp[0m| |[0;1mp[0m| |[7;1m [0m|| 3
[32;1m[Board] [0m  -------------------
[32;1m[Board] [0m2 ||[7;1m [0m| |[7;1m [0m| |[7;1m [0m|[0;1mk[0m|[0;1mp[0m|[0;1mp[0m|| 2
[32;1m[Board] [0m  -------------------
[32;1m[Board] [0m1 ||[30;1mr[0m|[0;1mk[0m|[0;1mb[0m|[0;1mQ[0m|[0;1mK[0m|[0;1mb[0m| |[0;1mr[0m|| 1
[32;1m[Board] [0m  -------------------
[32;1m[Board] [0m    a b c d e f g h
[32;1m[Board] [0m
[32;1m[Referee] [0mThis is the turn of the Black player...
Initial board:
--------------------
8| r h b q k b h r |
7| p p p p p p p p |
6| . . . . . . . . |
5| . . . . . . . . |
4| . . . . . . . . |
3| . . . . . . . . |
2| P P P P P P P P |
1| R H B Q K B H R |
--------------------
   a b c d e f g h
After reading:
--------------------
8| . h b q k b h r |
7| . p p p p p . p |
6| . . . . . . . . |
5| . . . . . . p . |
4| . p . . P . . . |
3| . . P P . P . . |
2| . . . . . H P P |
1| r H B Q K B . R |
--------------------
   a b c d e f g h
--------------------
8| . h b q k b h r |
7| . p p p p p . p |
6| . . . . . . . . |
5| . . . . . . p . |
4| . p . . P . . . |
3| . . P P . P . . |
2| . . . . . H P P |
1| . r B Q K B . R |
--------------------
   a b c d e f g h
[32;1m[Game] [0mPlayer's error code: 0
[32;1m[Game] [0mChecking move validity...
[32;1m[Board] [0mInitializing board...
[32;1m[Board] [0mLoading history file `championship/lizzie-iii-chess_and_the_city/history.csv`...
[32;1m[Board] [0mLoaded 15 move(s).
[32;1m[Board] [0mLoading move file `championship/lizzie-iii-chess_and_the_city/move.csv`...
[32;1m[Board] [0mBlack player is playing a1 to b1.
[32;1m[Board] [0m[5;1mBlack Rook is taking White Knight.[0m
[32;1m[Board] [0m
[32;1m[Board] [0m    a b c d e f g h 
[32;1m[Board] [0m  -------------------
[32;1m[Board] [0m8 ||[7;1m [0m|[30;1mk[0m|[30;1mb[0m|[30;1mQ[0m|[30;1mK[0m|[30;1mb[0m|[30;1mk[0m|[30;1mr[0m|| 8
[32;1m[Board] [0m  -------------------
[32;1m[Board] [0m7 || |[30;1mp[0m|[30;1mp[0m|[30;1mp[0m|[30;1mp[0m|[30;1mp[0m| |[30;1mp[0m|| 7
[32;1m[Board] [0m  -------------------
[32;1m[Board] [0m6 ||[7;1m [0m| |[7;1m [0m| |[7;1m [0m| |[7;1m [0m| || 6
[32;1m[Board] [0m  -------------------
[32;1m[Board] [0m5 || |[7;1m [0m| |[7;1m [0m| |[7;1m [0m|[30;1mp[0m|[7;1m [0m|| 5
[32;1m[Board] [0m  -------------------
[32;1m[Board] [0m4 ||[7;1m [0m|[30;1mp[0m|[7;1m [0m| |[0;1mp[0m| |[7;1m [0m| || 4
[32;1m[Board] [0m  -------------------
[32;1m[Board] [0m3 || |[7;1m [0m|[0;1mp[0m|[0;1mp[0m| |[0;1mp[0m| |[7;1m [0m|| 3
[32;1m[Board] [0m  -------------------
[32;1m[Board] [0m2 ||[7;1m [0m| |[7;1m [0m| |[7;1m [0m|[0;1mk[0m|[0;1mp[0m|[0;1mp[0m|| 2
[32;1m[Board] [0m  -------------------
[32;1m[Board] [0m1 || |[30;1mr[0m|[0;1mb[0m|[0;1mQ[0m|[0;1mK[0m|[0;1mb[0m| |[0;1mr[0m|| 1
[32;1m[Board] [0m  -------------------
[32;1m[Board] [0m    a b c d e f g h
[32;1m[Board] [0m
[32;1m[Referee] [0mThis is the turn of the White player...
Input file: championship/lizzie-iii-chess_and_the_city/history.csv
Output file: championship/lizzie-iii-chess_and_the_city/move.csv
Turn of: white
Succesful move
f2f3
8 | R N B Q K B N R 
7 | P P P P P P P P 
6 | _ _ _ _ _ _ _ _ 
5 | _ _ _ _ _ _ _ _ 
4 | _ _ _ _ _ _ _ _ 
3 | _ _ _ _ _ P _ _ 
2 | P P P P P _ P P 
1 | R N B Q K B N R 
-------------------
  | A B C D E F G H 

Turn of: black
Succesful move
a7a6
8 | R N B Q K B N R 
7 | _ P P P P P P P 
6 | P _ _ _ _ _ _ _ 
5 | _ _ _ _ _ _ _ _ 
4 | _ _ _ _ _ _ _ _ 
3 | _ _ _ _ _ P _ _ 
2 | P P P P P _ P P 
1 | R N B Q K B N R 
-------------------
  | A B C D E F G H 

Turn of: white
Succesful move
a2a4
8 | R N B Q K B N R 
7 | _ P P P P P P P 
6 | P _ _ _ _ _ _ _ 
5 | _ _ _ _ _ _ _ _ 
4 | P _ _ _ _ _ _ _ 
3 | _ _ _ _ _ P _ _ 
2 | _ P P P P _ P P 
1 | R N B Q K B N R 
-------------------
  | A B C D E F G H 

Turn of: black
Succesful move
a6a5
8 | R N B Q K B N R 
7 | _ P P P P P P P 
6 | _ _ _ _ _ _ _ _ 
5 | P _ _ _ _ _ _ _ 
4 | P _ _ _ _ _ _ _ 
3 | _ _ _ _ _ P _ _ 
2 | _ P P P P _ P P 
1 | R N B Q K B N R 
-------------------
  | A B C D E F G H 

Turn of: white
Succesful move
d2d3
8 | R N B Q K B N R 
7 | _ P P P P P P P 
6 | _ _ _ _ _ _ _ _ 
5 | P _ _ _ _ _ _ _ 
4 | P _ _ _ _ _ _ _ 
3 | _ _ _ P _ P _ _ 
2 | _ P P _ P _ P P 
1 | R N B Q K B N R 
-------------------
  | A B C D E F G H 

Turn of: black
Succesful move
g7g6
8 | R N B Q K B N R 
7 | _ P P P P P _ P 
6 | _ _ _ _ _ _ P _ 
5 | P _ _ _ _ _ _ _ 
4 | P _ _ _ _ _ _ _ 
3 | _ _ _ P _ P _ _ 
2 | _ P P _ P _ P P 
1 | R N B Q K B N R 
-------------------
  | A B C D E F G H 

Turn of: white
Succesful move
e2e4
8 | R N B Q K B N R 
7 | _ P P P P P _ P 
6 | _ _ _ _ _ _ P _ 
5 | P _ _ _ _ _ _ _ 
4 | P _ _ _ P _ _ _ 
3 | _ _ _ P _ P _ _ 
2 | _ P P _ _ _ P P 
1 | R N B Q K B N R 
-------------------
  | A B C D E F G H 

Turn of: black
Succesful move
g6g5
8 | R N B Q K B N R 
7 | _ P P P P P _ P 
6 | _ _ _ _ _ _ _ _ 
5 | P _ _ _ _ _ P _ 
4 | P _ _ _ P _ _ _ 
3 | _ _ _ P _ P _ _ 
2 | _ P P _ _ _ P P 
1 | R N B Q K B N R 
-------------------
  | A B C D E F G H 

Turn of: white
Succesful move
b2b4
8 | R N B Q K B N R 
7 | _ P P P P P _ P 
6 | _ _ _ _ _ _ _ _ 
5 | P _ _ _ _ _ P _ 
4 | P P _ _ P _ _ _ 
3 | _ _ _ P _ P _ _ 
2 | _ _ P _ _ _ P P 
1 | R N B Q K B N R 
-------------------
  | A B C D E F G H 

Turn of: black
Succesful move
a5b4
8 | R N B Q K B N R 
7 | _ P P P P P _ P 
6 | _ _ _ _ _ _ _ _ 
5 | _ _ _ _ _ _ P _ 
4 | P P _ _ P _ _ _ 
3 | _ _ _ P _ P _ _ 
2 | _ _ P _ _ _ P P 
1 | R N B Q K B N R 
-------------------
  | A B C D E F G H 

Turn of: white
Succesful move
c2c3
8 | R N B Q K B N R 
7 | _ P P P P P _ P 
6 | _ _ _ _ _ _ _ _ 
5 | _ _ _ _ _ _ P _ 
4 | P P _ _ P _ _ _ 
3 | _ _ P P _ P _ _ 
2 | _ _ _ _ _ _ P P 
1 | R N B Q K B N R 
-------------------
  | A B C D E F G H 

Turn of: black
Succesful move
a8a4
8 | _ N B Q K B N R 
7 | _ P P P P P _ P 
6 | _ _ _ _ _ _ _ _ 
5 | _ _ _ _ _ _ P _ 
4 | R P _ _ P _ _ _ 
3 | _ _ P P _ P _ _ 
2 | _ _ _ _ _ _ P P 
1 | R N B Q K B N R 
-------------------
  | A B C D E F G H 

Turn of: white
Succesful move
g1h3
8 | _ N B Q K B N R 
7 | _ P P P P P _ P 
6 | _ _ _ _ _ _ _ _ 
5 | _ _ _ _ _ _ P _ 
4 | R P _ _ P _ _ _ 
3 | _ _ P P _ P _ N 
2 | _ _ _ _ _ _ P P 
1 | R N B Q K B _ R 
-------------------
  | A B C D E F G H 

Turn of: black
Succesful move
a4a1
8 | _ N B Q K B N R 
7 | _ P P P P P _ P 
6 | _ _ _ _ _ _ _ _ 
5 | _ _ _ _ _ _ P _ 
4 | _ P _ _ P _ _ _ 
3 | _ _ P P _ P _ N 
2 | _ _ _ _ _ _ P P 
1 | R N B Q K B _ R 
-------------------
  | A B C D E F G H 

Turn of: white
Succesful move
h3f2
8 | _ N B Q K B N R 
7 | _ P P P P P _ P 
6 | _ _ _ _ _ _ _ _ 
5 | _ _ _ _ _ _ P _ 
4 | _ P _ _ P _ _ _ 
3 | _ _ P P _ P _ _ 
2 | _ _ _ _ _ N P P 
1 | R N B Q K B _ R 
-------------------
  | A B C D E F G H 

Turn of: black
Succesful move
a1b1
8 | _ N B Q K B N R 
7 | _ P P P P P _ P 
6 | _ _ _ _ _ _ _ _ 
5 | _ _ _ _ _ _ P _ 
4 | _ P _ _ P _ _ _ 
3 | _ _ P P _ P _ _ 
2 | _ _ _ _ _ N P P 
1 | _ R B Q K B _ R 
-------------------
  | A B C D E F G H 

We are playing as White
Move history:
f2f3
a7a6
a2a4
a6a5
d2d3
g7g6
e2e4
g6g5
b2b4
a5b4
c2c3
a8a4
g1h3
a4a1
h3f2
a1b1
8 | _ N B Q K B N R 
7 | _ P P P P P _ P 
6 | _ _ _ _ _ _ _ _ 
5 | _ _ _ _ _ _ P _ 
4 | _ P _ _ P _ _ _ 
3 | _ _ P P _ P _ _ 
2 | _ _ _ _ _ N P P 
1 | _ R B Q K B _ R 
-------------------
  | A B C D E F G H 

It is white's turn to play.
AI's move: d1b3
Move written: d1b3
[32;1m[Game] [0mPlayer's error code: 0
[32;1m[Game] [0mChecking move validity...
[32;1m[Board] [0mInitializing board...
[32;1m[Board] [0mLoading history file `championship/lizzie-iii-chess_and_the_city/history.csv`...
[32;1m[Board] [0mLoaded 16 move(s).
[32;1m[Board] [0mLoading move file `championship/lizzie-iii-chess_and_the_city/move.csv`...
[32;1m[Board] [0mWhite player is playing d1 to b3.
[32;1m[Board] [0m
[32;1m[Board] [0m    a b c d e f g h 
[32;1m[Board] [0m  -------------------
[32;1m[Board] [0m8 ||[7;1m [0m|[30;1mk[0m|[30;1mb[0m|[30;1mQ[0m|[30;1mK[0m|[30;1mb[0m|[30;1mk[0m|[30;1mr[0m|| 8
[32;1m[Board] [0m  -------------------
[32;1m[Board] [0m7 || |[30;1mp[0m|[30;1mp[0m|[30;1mp[0m|[30;1mp[0m|[30;1mp[0m| |[30;1mp[0m|| 7
[32;1m[Board] [0m  -------------------
[32;1m[Board] [0m6 ||[7;1m [0m| |[7;1m [0m| |[7;1m [0m| |[7;1m [0m| || 6
[32;1m[Board] [0m  -------------------
[32;1m[Board] [0m5 || |[7;1m [0m| |[7;1m [0m| |[7;1m [0m|[30;1mp[0m|[7;1m [0m|| 5
[32;1m[Board] [0m  -------------------
[32;1m[Board] [0m4 ||[7;1m [0m|[30;1mp[0m|[7;1m [0m| |[0;1mp[0m| |[7;1m [0m| || 4
[32;1m[Board] [0m  -------------------
[32;1m[Board] [0m3 || |[0;1mQ[0m|[0;1mp[0m|[0;1mp[0m| |[0;1mp[0m| |[7;1m [0m|| 3
[32;1m[Board] [0m  -------------------
[32;1m[Board] [0m2 ||[7;1m [0m| |[7;1m [0m| |[7;1m [0m|[0;1mk[0m|[0;1mp[0m|[0;1mp[0m|| 2
[32;1m[Board] [0m  -------------------
[32;1m[Board] [0m1 || |[30;1mr[0m|[0;1mb[0m|[7;1m [0m|[0;1mK[0m|[0;1mb[0m| |[0;1mr[0m|| 1
[32;1m[Board] [0m  -------------------
[32;1m[Board] [0m    a b c d e f g h
[32;1m[Board] [0m
[32;1m[Referee] [0mThis is the turn of the Black player...
Initial board:
--------------------
8| r h b q k b h r |
7| p p p p p p p p |
6| . . . . . . . . |
5| . . . . . . . . |
4| . . . . . . . . |
3| . . . . . . . . |
2| P P P P P P P P |
1| R H B Q K B H R |
--------------------
   a b c d e f g h
After reading:
--------------------
8| . h b q k b h r |
7| . p p p p p . p |
6| . . . . . . . . |
5| . . . . . . p . |
4| . p . . P . . . |
3| . Q P P . P . . |
2| . . . . . H P P |
1| . r B . K B . R |
--------------------
   a b c d e f g h
--------------------
8| . h b q k b h r |
7| . p p p p p . p |
6| . . . . . . . . |
5| . . . . . . p . |
4| . p . . P . . . |
3| . r P P . P . . |
2| . . . . . H P P |
1| . . B . K B . R |
--------------------
   a b c d e f g h
[32;1m[Game] [0mPlayer's error code: 0
[32;1m[Game] [0mChecking move validity...
[32;1m[Board] [0mInitializing board...
[32;1m[Board] [0mLoading history file `championship/lizzie-iii-chess_and_the_city/history.csv`...
[32;1m[Board] [0mLoaded 17 move(s).
[32;1m[Board] [0mLoading move file `championship/lizzie-iii-chess_and_the_city/move.csv`...
[32;1m[Board] [0mBlack player is playing b1 to b3.
[32;1m[Board] [0m[5;1mBlack Rook is taking White Queen.[0m
[32;1m[Board] [0m
[32;1m[Board] [0m    a b c d e f g h 
[32;1m[Board] [0m  -------------------
[32;1m[Board] [0m8 ||[7;1m [0m|[30;1mk[0m|[30;1mb[0m|[30;1mQ[0m|[30;1mK[0m|[30;1mb[0m|[30;1mk[0m|[30;1mr[0m|| 8
[32;1m[Board] [0m  -------------------
[32;1m[Board] [0m7 || |[30;1mp[0m|[30;1mp[0m|[30;1mp[0m|[30;1mp[0m|[30;1mp[0m| |[30;1mp[0m|| 7
[32;1m[Board] [0m  -------------------
[32;1m[Board] [0m6 ||[7;1m [0m| |[7;1m [0m| |[7;1m [0m| |[7;1m [0m| || 6
[32;1m[Board] [0m  -------------------
[32;1m[Board] [0m5 || |[7;1m [0m| |[7;1m [0m| |[7;1m [0m|[30;1mp[0m|[7;1m [0m|| 5
[32;1m[Board] [0m  -------------------
[32;1m[Board] [0m4 ||[7;1m [0m|[30;1mp[0m|[7;1m [0m| |[0;1mp[0m| |[7;1m [0m| || 4
[32;1m[Board] [0m  -------------------
[32;1m[Board] [0m3 || |[30;1mr[0m|[0;1mp[0m|[0;1mp[0m| |[0;1mp[0m| |[7;1m [0m|| 3
[32;1m[Board] [0m  -------------------
[32;1m[Board] [0m2 ||[7;1m [0m| |[7;1m [0m| |[7;1m [0m|[0;1mk[0m|[0;1mp[0m|[0;1mp[0m|| 2
[32;1m[Board] [0m  -------------------
[32;1m[Board] [0m1 || |[7;1m [0m|[0;1mb[0m|[7;1m [0m|[0;1mK[0m|[0;1mb[0m| |[0;1mr[0m|| 1
[32;1m[Board] [0m  -------------------
[32;1m[Board] [0m    a b c d e f g h
[32;1m[Board] [0m
[32;1m[Referee] [0mThis is the turn of the White player...
Input file: championship/lizzie-iii-chess_and_the_city/history.csv
Output file: championship/lizzie-iii-chess_and_the_city/move.csv
Turn of: white
Succesful move
f2f3
8 | R N B Q K B N R 
7 | P P P P P P P P 
6 | _ _ _ _ _ _ _ _ 
5 | _ _ _ _ _ _ _ _ 
4 | _ _ _ _ _ _ _ _ 
3 | _ _ _ _ _ P _ _ 
2 | P P P P P _ P P 
1 | R N B Q K B N R 
-------------------
  | A B C D E F G H 

Turn of: black
Succesful move
a7a6
8 | R N B Q K B N R 
7 | _ P P P P P P P 
6 | P _ _ _ _ _ _ _ 
5 | _ _ _ _ _ _ _ _ 
4 | _ _ _ _ _ _ _ _ 
3 | _ _ _ _ _ P _ _ 
2 | P P P P P _ P P 
1 | R N B Q K B N R 
-------------------
  | A B C D E F G H 

Turn of: white
Succesful move
a2a4
8 | R N B Q K B N R 
7 | _ P P P P P P P 
6 | P _ _ _ _ _ _ _ 
5 | _ _ _ _ _ _ _ _ 
4 | P _ _ _ _ _ _ _ 
3 | _ _ _ _ _ P _ _ 
2 | _ P P P P _ P P 
1 | R N B Q K B N R 
-------------------
  | A B C D E F G H 

Turn of: black
Succesful move
a6a5
8 | R N B Q K B N R 
7 | _ P P P P P P P 
6 | _ _ _ _ _ _ _ _ 
5 | P _ _ _ _ _ _ _ 
4 | P _ _ _ _ _ _ _ 
3 | _ _ _ _ _ P _ _ 
2 | _ P P P P _ P P 
1 | R N B Q K B N R 
-------------------
  | A B C D E F G H 

Turn of: white
Succesful move
d2d3
8 | R N B Q K B N R 
7 | _ P P P P P P P 
6 | _ _ _ _ _ _ _ _ 
5 | P _ _ _ _ _ _ _ 
4 | P _ _ _ _ _ _ _ 
3 | _ _ _ P _ P _ _ 
2 | _ P P _ P _ P P 
1 | R N B Q K B N R 
-------------------
  | A B C D E F G H 

Turn of: black
Succesful move
g7g6
8 | R N B Q K B N R 
7 | _ P P P P P _ P 
6 | _ _ _ _ _ _ P _ 
5 | P _ _ _ _ _ _ _ 
4 | P _ _ _ _ _ _ _ 
3 | _ _ _ P _ P _ _ 
2 | _ P P _ P _ P P 
1 | R N B Q K B N R 
-------------------
  | A B C D E F G H 

Turn of: white
Succesful move
e2e4
8 | R N B Q K B N R 
7 | _ P P P P P _ P 
6 | _ _ _ _ _ _ P _ 
5 | P _ _ _ _ _ _ _ 
4 | P _ _ _ P _ _ _ 
3 | _ _ _ P _ P _ _ 
2 | _ P P _ _ _ P P 
1 | R N B Q K B N R 
-------------------
  | A B C D E F G H 

Turn of: black
Succesful move
g6g5
8 | R N B Q K B N R 
7 | _ P P P P P _ P 
6 | _ _ _ _ _ _ _ _ 
5 | P _ _ _ _ _ P _ 
4 | P _ _ _ P _ _ _ 
3 | _ _ _ P _ P _ _ 
2 | _ P P _ _ _ P P 
1 | R N B Q K B N R 
-------------------
  | A B C D E F G H 

Turn of: white
Succesful move
b2b4
8 | R N B Q K B N R 
7 | _ P P P P P _ P 
6 | _ _ _ _ _ _ _ _ 
5 | P _ _ _ _ _ P _ 
4 | P P _ _ P _ _ _ 
3 | _ _ _ P _ P _ _ 
2 | _ _ P _ _ _ P P 
1 | R N B Q K B N R 
-------------------
  | A B C D E F G H 

Turn of: black
Succesful move
a5b4
8 | R N B Q K B N R 
7 | _ P P P P P _ P 
6 | _ _ _ _ _ _ _ _ 
5 | _ _ _ _ _ _ P _ 
4 | P P _ _ P _ _ _ 
3 | _ _ _ P _ P _ _ 
2 | _ _ P _ _ _ P P 
1 | R N B Q K B N R 
-------------------
  | A B C D E F G H 

Turn of: white
Succesful move
c2c3
8 | R N B Q K B N R 
7 | _ P P P P P _ P 
6 | _ _ _ _ _ _ _ _ 
5 | _ _ _ _ _ _ P _ 
4 | P P _ _ P _ _ _ 
3 | _ _ P P _ P _ _ 
2 | _ _ _ _ _ _ P P 
1 | R N B Q K B N R 
-------------------
  | A B C D E F G H 

Turn of: black
Succesful move
a8a4
8 | _ N B Q K B N R 
7 | _ P P P P P _ P 
6 | _ _ _ _ _ _ _ _ 
5 | _ _ _ _ _ _ P _ 
4 | R P _ _ P _ _ _ 
3 | _ _ P P _ P _ _ 
2 | _ _ _ _ _ _ P P 
1 | R N B Q K B N R 
-------------------
  | A B C D E F G H 

Turn of: white
Succesful move
g1h3
8 | _ N B Q K B N R 
7 | _ P P P P P _ P 
6 | _ _ _ _ _ _ _ _ 
5 | _ _ _ _ _ _ P _ 
4 | R P _ _ P _ _ _ 
3 | _ _ P P _ P _ N 
2 | _ _ _ _ _ _ P P 
1 | R N B Q K B _ R 
-------------------
  | A B C D E F G H 

Turn of: black
Succesful move
a4a1
8 | _ N B Q K B N R 
7 | _ P P P P P _ P 
6 | _ _ _ _ _ _ _ _ 
5 | _ _ _ _ _ _ P _ 
4 | _ P _ _ P _ _ _ 
3 | _ _ P P _ P _ N 
2 | _ _ _ _ _ _ P P 
1 | R N B Q K B _ R 
-------------------
  | A B C D E F G H 

Turn of: white
Succesful move
h3f2
8 | _ N B Q K B N R 
7 | _ P P P P P _ P 
6 | _ _ _ _ _ _ _ _ 
5 | _ _ _ _ _ _ P _ 
4 | _ P _ _ P _ _ _ 
3 | _ _ P P _ P _ _ 
2 | _ _ _ _ _ N P P 
1 | R N B Q K B _ R 
-------------------
  | A B C D E F G H 

Turn of: black
Succesful move
a1b1
8 | _ N B Q K B N R 
7 | _ P P P P P _ P 
6 | _ _ _ _ _ _ _ _ 
5 | _ _ _ _ _ _ P _ 
4 | _ P _ _ P _ _ _ 
3 | _ _ P P _ P _ _ 
2 | _ _ _ _ _ N P P 
1 | _ R B Q K B _ R 
-------------------
  | A B C D E F G H 

Turn of: white
Succesful move
d1b3
8 | _ N B Q K B N R 
7 | _ P P P P P _ P 
6 | _ _ _ _ _ _ _ _ 
5 | _ _ _ _ _ _ P _ 
4 | _ P _ _ P _ _ _ 
3 | _ Q P P _ P _ _ 
2 | _ _ _ _ _ N P P 
1 | _ R B _ K B _ R 
-------------------
  | A B C D E F G H 

Turn of: black
Succesful move
b1b3
8 | _ N B Q K B N R 
7 | _ P P P P P _ P 
6 | _ _ _ _ _ _ _ _ 
5 | _ _ _ _ _ _ P _ 
4 | _ P _ _ P _ _ _ 
3 | _ R P P _ P _ _ 
2 | _ _ _ _ _ N P P 
1 | _ _ B _ K B _ R 
-------------------
  | A B C D E F G H 

We are playing as White
Move history:
f2f3
a7a6
a2a4
a6a5
d2d3
g7g6
e2e4
g6g5
b2b4
a5b4
c2c3
a8a4
g1h3
a4a1
h3f2
a1b1
d1b3
b1b3
8 | _ N B Q K B N R 
7 | _ P P P P P _ P 
6 | _ _ _ _ _ _ _ _ 
5 | _ _ _ _ _ _ P _ 
4 | _ P _ _ P _ _ _ 
3 | _ R P P _ P _ _ 
2 | _ _ _ _ _ N P P 
1 | _ _ B _ K B _ R 
-------------------
  | A B C D E F G H 

It is white's turn to play.
AI's move: h2h4
Move written: h2h4
[32;1m[Game] [0mPlayer's error code: 0
[32;1m[Game] [0mChecking move validity...
[32;1m[Board] [0mInitializing board...
[32;1m[Board] [0mLoading history file `championship/lizzie-iii-chess_and_the_city/history.csv`...
[32;1m[Board] [0mLoaded 18 move(s).
[32;1m[Board] [0mLoading move file `championship/lizzie-iii-chess_and_the_city/move.csv`...
[32;1m[Board] [0mWhite player is playing h2 to h4.
[32;1m[Board] [0m
[32;1m[Board] [0m    a b c d e f g h 
[32;1m[Board] [0m  -------------------
[32;1m[Board] [0m8 ||[7;1m [0m|[30;1mk[0m|[30;1mb[0m|[30;1mQ[0m|[30;1mK[0m|[30;1mb[0m|[30;1mk[0m|[30;1mr[0m|| 8
[32;1m[Board] [0m  -------------------
[32;1m[Board] [0m7 || |[30;1mp[0m|[30;1mp[0m|[30;1mp[0m|[30;1mp[0m|[30;1mp[0m| |[30;1mp[0m|| 7
[32;1m[Board] [0m  -------------------
[32;1m[Board] [0m6 ||[7;1m [0m| |[7;1m [0m| |[7;1m [0m| |[7;1m [0m| || 6
[32;1m[Board] [0m  -------------------
[32;1m[Board] [0m5 || |[7;1m [0m| |[7;1m [0m| |[7;1m [0m|[30;1mp[0m|[7;1m [0m|| 5
[32;1m[Board] [0m  -------------------
[32;1m[Board] [0m4 ||[7;1m [0m|[30;1mp[0m|[7;1m [0m| |[0;1mp[0m| |[7;1m [0m|[0;1mp[0m|| 4
[32;1m[Board] [0m  -------------------
[32;1m[Board] [0m3 || |[30;1mr[0m|[0;1mp[0m|[0;1mp[0m| |[0;1mp[0m| |[7;1m [0m|| 3
[32;1m[Board] [0m  -------------------
[32;1m[Board] [0m2 ||[7;1m [0m| |[7;1m [0m| |[7;1m [0m|[0;1mk[0m|[0;1mp[0m| || 2
[32;1m[Board] [0m  -------------------
[32;1m[Board] [0m1 || |[7;1m [0m|[0;1mb[0m|[7;1m [0m|[0;1mK[0m|[0;1mb[0m| |[0;1mr[0m|| 1
[32;1m[Board] [0m  -------------------
[32;1m[Board] [0m    a b c d e f g h
[32;1m[Board] [0m
[32;1m[Referee] [0mThis is the turn of the Black player...
Initial board:
--------------------
8| r h b q k b h r |
7| p p p p p p p p |
6| . . . . . . . . |
5| . . . . . . . . |
4| . . . . . . . . |
3| . . . . . . . . |
2| P P P P P P P P |
1| R H B Q K B H R |
--------------------
   a b c d e f g h
After reading:
--------------------
8| . h b q k b h r |
7| . p p p p p . p |
6| . . . . . . . . |
5| . . . . . . p . |
4| . p . . P . . P |
3| . r P P . P . . |
2| . . . . . H P . |
1| . . B . K B . R |
--------------------
   a b c d e f g h
--------------------
8| . h b q k b h r |
7| . p p p p p . p |
6| . . . . . . . . |
5| . . . . . . p . |
4| . p . . P . . P |
3| . . r P . P . . |
2| . . . . . H P . |
1| . . B . K B . R |
--------------------
   a b c d e f g h
[32;1m[Game] [0mPlayer's error code: 0
[32;1m[Game] [0mChecking move validity...
[32;1m[Board] [0mInitializing board...
[32;1m[Board] [0mLoading history file `championship/lizzie-iii-chess_and_the_city/history.csv`...
[32;1m[Board] [0mLoaded 19 move(s).
[32;1m[Board] [0mLoading move file `championship/lizzie-iii-chess_and_the_city/move.csv`...
[32;1m[Board] [0mBlack player is playing b3 to c3.
[32;1m[Board] [0m[5;1mBlack Rook is taking White Pawn.[0m
[32;1m[Board] [0m
[32;1m[Board] [0m    a b c d e f g h 
[32;1m[Board] [0m  -------------------
[32;1m[Board] [0m8 ||[7;1m [0m|[30;1mk[0m|[30;1mb[0m|[30;1mQ[0m|[30;1mK[0m|[30;1mb[0m|[30;1mk[0m|[30;1mr[0m|| 8
[32;1m[Board] [0m  -------------------
[32;1m[Board] [0m7 || |[30;1mp[0m|[30;1mp[0m|[30;1mp[0m|[30;1mp[0m|[30;1mp[0m| |[30;1mp[0m|| 7
[32;1m[Board] [0m  -------------------
[32;1m[Board] [0m6 ||[7;1m [0m| |[7;1m [0m| |[7;1m [0m| |[7;1m [0m| || 6
[32;1m[Board] [0m  -------------------
[32;1m[Board] [0m5 || |[7;1m [0m| |[7;1m [0m| |[7;1m [0m|[30;1mp[0m|[7;1m [0m|| 5
[32;1m[Board] [0m  -------------------
[32;1m[Board] [0m4 ||[7;1m [0m|[30;1mp[0m|[7;1m [0m| |[0;1mp[0m| |[7;1m [0m|[0;1mp[0m|| 4
[32;1m[Board] [0m  -------------------
[32;1m[Board] [0m3 || |[7;1m [0m|[30;1mr[0m|[0;1mp[0m| |[0;1mp[0m| |[7;1m [0m|| 3
[32;1m[Board] [0m  -------------------
[32;1m[Board] [0m2 ||[7;1m [0m| |[7;1m [0m| |[7;1m [0m|[0;1mk[0m|[0;1mp[0m| || 2
[32;1m[Board] [0m  -------------------
[32;1m[Board] [0m1 || |[7;1m [0m|[0;1mb[0m|[7;1m [0m|[0;1mK[0m|[0;1mb[0m| |[0;1mr[0m|| 1
[32;1m[Board] [0m  -------------------
[32;1m[Board] [0m    a b c d e f g h
[32;1m[Board] [0m
[32;1m[Referee] [0mThis is the turn of the White player...
Input file: championship/lizzie-iii-chess_and_the_city/history.csv
Output file: championship/lizzie-iii-chess_and_the_city/move.csv
Turn of: white
Succesful move
f2f3
8 | R N B Q K B N R 
7 | P P P P P P P P 
6 | _ _ _ _ _ _ _ _ 
5 | _ _ _ _ _ _ _ _ 
4 | _ _ _ _ _ _ _ _ 
3 | _ _ _ _ _ P _ _ 
2 | P P P P P _ P P 
1 | R N B Q K B N R 
-------------------
  | A B C D E F G H 

Turn of: black
Succesful move
a7a6
8 | R N B Q K B N R 
7 | _ P P P P P P P 
6 | P _ _ _ _ _ _ _ 
5 | _ _ _ _ _ _ _ _ 
4 | _ _ _ _ _ _ _ _ 
3 | _ _ _ _ _ P _ _ 
2 | P P P P P _ P P 
1 | R N B Q K B N R 
-------------------
  | A B C D E F G H 

Turn of: white
Succesful move
a2a4
8 | R N B Q K B N R 
7 | _ P P P P P P P 
6 | P _ _ _ _ _ _ _ 
5 | _ _ _ _ _ _ _ _ 
4 | P _ _ _ _ _ _ _ 
3 | _ _ _ _ _ P _ _ 
2 | _ P P P P _ P P 
1 | R N B Q K B N R 
-------------------
  | A B C D E F G H 

Turn of: black
Succesful move
a6a5
8 | R N B Q K B N R 
7 | _ P P P P P P P 
6 | _ _ _ _ _ _ _ _ 
5 | P _ _ _ _ _ _ _ 
4 | P _ _ _ _ _ _ _ 
3 | _ _ _ _ _ P _ _ 
2 | _ P P P P _ P P 
1 | R N B Q K B N R 
-------------------
  | A B C D E F G H 

Turn of: white
Succesful move
d2d3
8 | R N B Q K B N R 
7 | _ P P P P P P P 
6 | _ _ _ _ _ _ _ _ 
5 | P _ _ _ _ _ _ _ 
4 | P _ _ _ _ _ _ _ 
3 | _ _ _ P _ P _ _ 
2 | _ P P _ P _ P P 
1 | R N B Q K B N R 
-------------------
  | A B C D E F G H 

Turn of: black
Succesful move
g7g6
8 | R N B Q K B N R 
7 | _ P P P P P _ P 
6 | _ _ _ _ _ _ P _ 
5 | P _ _ _ _ _ _ _ 
4 | P _ _ _ _ _ _ _ 
3 | _ _ _ P _ P _ _ 
2 | _ P P _ P _ P P 
1 | R N B Q K B N R 
-------------------
  | A B C D E F G H 

Turn of: white
Succesful move
e2e4
8 | R N B Q K B N R 
7 | _ P P P P P _ P 
6 | _ _ _ _ _ _ P _ 
5 | P _ _ _ _ _ _ _ 
4 | P _ _ _ P _ _ _ 
3 | _ _ _ P _ P _ _ 
2 | _ P P _ _ _ P P 
1 | R N B Q K B N R 
-------------------
  | A B C D E F G H 

Turn of: black
Succesful move
g6g5
8 | R N B Q K B N R 
7 | _ P P P P P _ P 
6 | _ _ _ _ _ _ _ _ 
5 | P _ _ _ _ _ P _ 
4 | P _ _ _ P _ _ _ 
3 | _ _ _ P _ P _ _ 
2 | _ P P _ _ _ P P 
1 | R N B Q K B N R 
-------------------
  | A B C D E F G H 

Turn of: white
Succesful move
b2b4
8 | R N B Q K B N R 
7 | _ P P P P P _ P 
6 | _ _ _ _ _ _ _ _ 
5 | P _ _ _ _ _ P _ 
4 | P P _ _ P _ _ _ 
3 | _ _ _ P _ P _ _ 
2 | _ _ P _ _ _ P P 
1 | R N B Q K B N R 
-------------------
  | A B C D E F G H 

Turn of: black
Succesful move
a5b4
8 | R N B Q K B N R 
7 | _ P P P P P _ P 
6 | _ _ _ _ _ _ _ _ 
5 | _ _ _ _ _ _ P _ 
4 | P P _ _ P _ _ _ 
3 | _ _ _ P _ P _ _ 
2 | _ _ P _ _ _ P P 
1 | R N B Q K B N R 
-------------------
  | A B C D E F G H 

Turn of: white
Succesful move
c2c3
8 | R N B Q K B N R 
7 | _ P P P P P _ P 
6 | _ _ _ _ _ _ _ _ 
5 | _ _ _ _ _ _ P _ 
4 | P P _ _ P _ _ _ 
3 | _ _ P P _ P _ _ 
2 | _ _ _ _ _ _ P P 
1 | R N B Q K B N R 
-------------------
  | A B C D E F G H 

Turn of: black
Succesful move
a8a4
8 | _ N B Q K B N R 
7 | _ P P P P P _ P 
6 | _ _ _ _ _ _ _ _ 
5 | _ _ _ _ _ _ P _ 
4 | R P _ _ P _ _ _ 
3 | _ _ P P _ P _ _ 
2 | _ _ _ _ _ _ P P 
1 | R N B Q K B N R 
-------------------
  | A B C D E F G H 

Turn of: white
Succesful move
g1h3
8 | _ N B Q K B N R 
7 | _ P P P P P _ P 
6 | _ _ _ _ _ _ _ _ 
5 | _ _ _ _ _ _ P _ 
4 | R P _ _ P _ _ _ 
3 | _ _ P P _ P _ N 
2 | _ _ _ _ _ _ P P 
1 | R N B Q K B _ R 
-------------------
  | A B C D E F G H 

Turn of: black
Succesful move
a4a1
8 | _ N B Q K B N R 
7 | _ P P P P P _ P 
6 | _ _ _ _ _ _ _ _ 
5 | _ _ _ _ _ _ P _ 
4 | _ P _ _ P _ _ _ 
3 | _ _ P P _ P _ N 
2 | _ _ _ _ _ _ P P 
1 | R N B Q K B _ R 
-------------------
  | A B C D E F G H 

Turn of: white
Succesful move
h3f2
8 | _ N B Q K B N R 
7 | _ P P P P P _ P 
6 | _ _ _ _ _ _ _ _ 
5 | _ _ _ _ _ _ P _ 
4 | _ P _ _ P _ _ _ 
3 | _ _ P P _ P _ _ 
2 | _ _ _ _ _ N P P 
1 | R N B Q K B _ R 
-------------------
  | A B C D E F G H 

Turn of: black
Succesful move
a1b1
8 | _ N B Q K B N R 
7 | _ P P P P P _ P 
6 | _ _ _ _ _ _ _ _ 
5 | _ _ _ _ _ _ P _ 
4 | _ P _ _ P _ _ _ 
3 | _ _ P P _ P _ _ 
2 | _ _ _ _ _ N P P 
1 | _ R B Q K B _ R 
-------------------
  | A B C D E F G H 

Turn of: white
Succesful move
d1b3
8 | _ N B Q K B N R 
7 | _ P P P P P _ P 
6 | _ _ _ _ _ _ _ _ 
5 | _ _ _ _ _ _ P _ 
4 | _ P _ _ P _ _ _ 
3 | _ Q P P _ P _ _ 
2 | _ _ _ _ _ N P P 
1 | _ R B _ K B _ R 
-------------------
  | A B C D E F G H 

Turn of: black
Succesful move
b1b3
8 | _ N B Q K B N R 
7 | _ P P P P P _ P 
6 | _ _ _ _ _ _ _ _ 
5 | _ _ _ _ _ _ P _ 
4 | _ P _ _ P _ _ _ 
3 | _ R P P _ P _ _ 
2 | _ _ _ _ _ N P P 
1 | _ _ B _ K B _ R 
-------------------
  | A B C D E F G H 

Turn of: white
Succesful move
h2h4
8 | _ N B Q K B N R 
7 | _ P P P P P _ P 
6 | _ _ _ _ _ _ _ _ 
5 | _ _ _ _ _ _ P _ 
4 | _ P _ _ P _ _ P 
3 | _ R P P _ P _ _ 
2 | _ _ _ _ _ N P _ 
1 | _ _ B _ K B _ R 
-------------------
  | A B C D E F G H 

Turn of: black
Succesful move
b3c3
8 | _ N B Q K B N R 
7 | _ P P P P P _ P 
6 | _ _ _ _ _ _ _ _ 
5 | _ _ _ _ _ _ P _ 
4 | _ P _ _ P _ _ P 
3 | _ _ R P _ P _ _ 
2 | _ _ _ _ _ N P _ 
1 | _ _ B _ K B _ R 
-------------------
  | A B C D E F G H 

We are playing as White
Move history:
f2f3
a7a6
a2a4
a6a5
d2d3
g7g6
e2e4
g6g5
b2b4
a5b4
c2c3
a8a4
g1h3
a4a1
h3f2
a1b1
d1b3
b1b3
h2h4
b3c3
8 | _ N B Q K B N R 
7 | _ P P P P P _ P 
6 | _ _ _ _ _ _ _ _ 
5 | _ _ _ _ _ _ P _ 
4 | _ P _ _ P _ _ P 
3 | _ _ R P _ P _ _ 
2 | _ _ _ _ _ N P _ 
1 | _ _ B _ K B _ R 
-------------------
  | A B C D E F G H 

It is white's turn to play.
AI's move: c1e3
Move written: c1e3
[32;1m[Game] [0mPlayer's error code: 0
[32;1m[Game] [0mChecking move validity...
[32;1m[Board] [0mInitializing board...
[32;1m[Board] [0mLoading history file `championship/lizzie-iii-chess_and_the_city/history.csv`...
[32;1m[Board] [0mLoaded 20 move(s).
[32;1m[Board] [0mLoading move file `championship/lizzie-iii-chess_and_the_city/move.csv`...
[32;1m[Board] [0mWhite player is playing c1 to e3.
[32;1m[Board] [0m
[32;1m[Board] [0m    a b c d e f g h 
[32;1m[Board] [0m  -------------------
[32;1m[Board] [0m8 ||[7;1m [0m|[30;1mk[0m|[30;1mb[0m|[30;1mQ[0m|[30;1mK[0m|[30;1mb[0m|[30;1mk[0m|[30;1mr[0m|| 8
[32;1m[Board] [0m  -------------------
[32;1m[Board] [0m7 || |[30;1mp[0m|[30;1mp[0m|[30;1mp[0m|[30;1mp[0m|[30;1mp[0m| |[30;1mp[0m|| 7
[32;1m[Board] [0m  -------------------
[32;1m[Board] [0m6 ||[7;1m [0m| |[7;1m [0m| |[7;1m [0m| |[7;1m [0m| || 6
[32;1m[Board] [0m  -------------------
[32;1m[Board] [0m5 || |[7;1m [0m| |[7;1m [0m| |[7;1m [0m|[30;1mp[0m|[7;1m [0m|| 5
[32;1m[Board] [0m  -------------------
[32;1m[Board] [0m4 ||[7;1m [0m|[30;1mp[0m|[7;1m [0m| |[0;1mp[0m| |[7;1m [0m|[0;1mp[0m|| 4
[32;1m[Board] [0m  -------------------
[32;1m[Board] [0m3 || |[7;1m [0m|[30;1mr[0m|[0;1mp[0m|[0;1mb[0m|[0;1mp[0m| |[7;1m [0m|| 3
[32;1m[Board] [0m  -------------------
[32;1m[Board] [0m2 ||[7;1m [0m| |[7;1m [0m| |[7;1m [0m|[0;1mk[0m|[0;1mp[0m| || 2
[32;1m[Board] [0m  -------------------
[32;1m[Board] [0m1 || |[7;1m [0m| |[7;1m [0m|[0;1mK[0m|[0;1mb[0m| |[0;1mr[0m|| 1
[32;1m[Board] [0m  -------------------
[32;1m[Board] [0m    a b c d e f g h
[32;1m[Board] [0m
[32;1m[Referee] [0mThis is the turn of the Black player...
Initial board:
--------------------
8| r h b q k b h r |
7| p p p p p p p p |
6| . . . . . . . . |
5| . . . . . . . . |
4| . . . . . . . . |
3| . . . . . . . . |
2| P P P P P P P P |
1| R H B Q K B H R |
--------------------
   a b c d e f g h
After reading:
--------------------
8| . h b q k b h r |
7| . p p p p p . p |
6| . . . . . . . . |
5| . . . . . . p . |
4| . p . . P . . P |
3| . . r P B P . . |
2| . . . . . H P . |
1| . . . . K B . R |
--------------------
   a b c d e f g h
--------------------
8| . h b q k b h r |
7| . p p p p p . p |
6| . . . . . . . . |
5| . . . . . . p . |
4| . p . . P . . P |
3| . . . r B P . . |
2| . . . . . H P . |
1| . . . . K B . R |
--------------------
   a b c d e f g h
[32;1m[Game] [0mPlayer's error code: 0
[32;1m[Game] [0mChecking move validity...
[32;1m[Board] [0mInitializing board...
[32;1m[Board] [0mLoading history file `championship/lizzie-iii-chess_and_the_city/history.csv`...
[32;1m[Board] [0mLoaded 21 move(s).
[32;1m[Board] [0mLoading move file `championship/lizzie-iii-chess_and_the_city/move.csv`...
[32;1m[Board] [0mBlack player is playing c3 to d3.
[32;1m[Board] [0m[5;1mBlack Rook is taking White Pawn.[0m
[32;1m[Board] [0m
[32;1m[Board] [0m    a b c d e f g h 
[32;1m[Board] [0m  -------------------
[...]
e4e5
8 | _ _ B Q K B N R 
7 | _ P P N P P _ P 
6 | _ _ _ _ _ _ _ _ 
5 | _ _ _ _ P _ _ _ 
4 | _ P _ B _ _ _ P 
3 | _ _ _ _ _ _ _ _ 
2 | _ _ _ _ _ _ _ R 
1 | _ _ _ _ K _ _ _ 
-------------------
  | A B C D E F G H 

Turn of: black
Succesful move
d7e5
8 | _ _ B Q K B N R 
7 | _ P P _ P P _ P 
6 | _ _ _ _ _ _ _ _ 
5 | _ _ _ _ N _ _ _ 
4 | _ P _ B _ _ _ P 
3 | _ _ _ _ _ _ _ _ 
2 | _ _ _ _ _ _ _ R 
1 | _ _ _ _ K _ _ _ 
-------------------
  | A B C D E F G H 

Turn of: white
Succesful move
d4e3
8 | _ _ B Q K B N R 
7 | _ P P _ P P _ P 
6 | _ _ _ _ _ _ _ _ 
5 | _ _ _ _ N _ _ _ 
4 | _ P _ _ _ _ _ P 
3 | _ _ _ _ B _ _ _ 
2 | _ _ _ _ _ _ _ R 
1 | _ _ _ _ K _ _ _ 
-------------------
  | A B C D E F G H 

Turn of: black
Succesful move
c8d7
8 | _ _ _ Q K B N R 
7 | _ P P B P P _ P 
6 | _ _ _ _ _ _ _ _ 
5 | _ _ _ _ N _ _ _ 
4 | _ P _ _ _ _ _ P 
3 | _ _ _ _ B _ _ _ 
2 | _ _ _ _ _ _ _ R 
1 | _ _ _ _ K _ _ _ 
-------------------
  | A B C D E F G H 

Turn of: white
Succesful move
e3d2
8 | _ _ _ Q K B N R 
7 | _ P P B P P _ P 
6 | _ _ _ _ _ _ _ _ 
5 | _ _ _ _ N _ _ _ 
4 | _ P _ _ _ _ _ P 
3 | _ _ _ _ _ _ _ _ 
2 | _ _ _ B _ _ _ R 
1 | _ _ _ _ K _ _ _ 
-------------------
  | A B C D E F G H 

Turn of: black
Succesful move
h2d2
8 | _ _ _ Q K B N R 
7 | _ P P B P P _ P 
6 | _ _ _ _ _ _ _ _ 
5 | _ _ _ _ N _ _ _ 
4 | _ P _ _ _ _ _ P 
3 | _ _ _ _ _ _ _ _ 
2 | _ _ _ R _ _ _ _ 
1 | _ _ _ _ K _ _ _ 
-------------------
  | A B C D E F G H 

We are playing as White
Move history:
f2f3
a7a6
a2a4
a6a5
d2d3
g7g6
e2e4
g6g5
b2b4
a5b4
c2c3
a8a4
g1h3
a4a1
h3f2
a1b1
d1b3
b1b3
h2h4
b3c3
c1e3
c3d3
e3a7
d3f3
a7d4
f3f2
f1c4
f2g2
c4b5
g5h4
b5d7
b8d7
h1h2
g2h2
e4e5
d7e5
d4e3
c8d7
e3d2
h2d2
8 | _ _ _ Q K B N R 
7 | _ P P B P P _ P 
6 | _ _ _ _ _ _ _ _ 
5 | _ _ _ _ N _ _ _ 
4 | _ P _ _ _ _ _ P 
3 | _ _ _ _ _ _ _ _ 
2 | _ _ _ R _ _ _ _ 
1 | _ _ _ _ K _ _ _ 
-------------------
  | A B C D E F G H 

It is white's turn to play.
AI's move: e1d2
Move written: e1d2
[32;1m[Game] [0mPlayer's error code: 0
[32;1m[Game] [0mChecking move validity...
[32;1m[Board] [0mInitializing board...
[32;1m[Board] [0mLoading history file `championship/lizzie-iii-chess_and_the_city/history.csv`...
[32;1m[Board] [0mLoaded 40 move(s).
[32;1m[Board] [0mLoading move file `championship/lizzie-iii-chess_and_the_city/move.csv`...
[32;1m[Board] [0mWhite player is playing e1 to d2.
[32;1m[Board] [0m[5;1mWhite King is taking Black Rook.[0m
[32;1m[Board] [0m
[32;1m[Board] [0m    a b c d e f g h 
[32;1m[Board] [0m  -------------------
[32;1m[Board] [0m8 ||[7;1m [0m| |[7;1m [0m|[30;1mQ[0m|[30;1mK[0m|[30;1mb[0m|[30;1mk[0m|[30;1mr[0m|| 8
[32;1m[Board] [0m  -------------------
[32;1m[Board] [0m7 || |[30;1mp[0m|[30;1mp[0m|[30;1mb[0m|[30;1mp[0m|[30;1mp[0m| |[30;1mp[0m|| 7
[32;1m[Board] [0m  -------------------
[32;1m[Board] [0m6 ||[7;1m [0m| |[7;1m [0m| |[7;1m [0m| |[7;1m [0m| || 6
[32;1m[Board] [0m  -------------------
[32;1m[Board] [0m5 || |[7;1m [0m| |[7;1m [0m|[30;1mk[0m|[7;1m [0m| |[7;1m [0m|| 5
[32;1m[Board] [0m  -------------------
[32;1m[Board] [0m4 ||[7;1m [0m|[30;1mp[0m|[7;1m [0m| |[7;1m [0m| |[7;1m [0m|[30;1mp[0m|| 4
[32;1m[Board] [0m  -------------------
[32;1m[Board] [0m3 || |[7;1m [0m| |[7;1m [0m| |[7;1m [0m| |[7;1m [0m|| 3
[32;1m[Board] [0m  -------------------
[32;1m[Board] [0m2 ||[7;1m [0m| |[7;1m [0m|[0;1mK[0m|[7;1m [0m| |[7;1m [0m| || 2
[32;1m[Board] [0m  -------------------
[32;1m[Board] [0m1 || |[7;1m [0m| |[7;1m [0m| |[7;1m [0m| |[7;1m [0m|| 1
[32;1m[Board] [0m  -------------------
[32;1m[Board] [0m    a b c d e f g h
[32;1m[Board] [0m
[32;1m[Referee] [0mThis is the turn of the Black player...
Initial board:
--------------------
8| r h b q k b h r |
7| p p p p p p p p |
6| . . . . . . . . |
5| . . . . . . . . |
4| . . . . . . . . |
3| . . . . . . . . |
2| P P P P P P P P |
1| R H B Q K B H R |
--------------------
   a b c d e f g h
After reading:
--------------------
8| . . . q k b h r |
7| . p p b p p . p |
6| . . . . . . . . |
5| . . . . h . . . |
4| . p . . . . . p |
3| . . . . . . . . |
2| . . . K . . . . |
1| . . . . . . . . |
--------------------
   a b c d e f g h
--------------------
8| . . b q k b h r |
7| . p p . p p . p |
6| . . . . . . . . |
5| . . . . h . . . |
4| . p . . . . . p |
3| . . . . . . . . |
2| . . . K . . . . |
1| . . . . . . . . |
--------------------
   a b c d e f g h
[32;1m[Game] [0mPlayer's error code: 0
[32;1m[Game] [0mChecking move validity...
[32;1m[Board] [0mInitializing board...
[32;1m[Board] [0mLoading history file `championship/lizzie-iii-chess_and_the_city/history.csv`...
[32;1m[Board] [0mLoaded 41 move(s).
[32;1m[Board] [0mLoading move file `championship/lizzie-iii-chess_and_the_city/move.csv`...
[32;1m[Board] [0mBlack player is playing d7 to c8.
[32;1m[Board] [0m
[32;1m[Board] [0m    a b c d e f g h 
[32;1m[Board] [0m  -------------------
[32;1m[Board] [0m8 ||[7;1m [0m| |[30;1mb[0m|[30;1mQ[0m|[30;1mK[0m|[30;1mb[0m|[30;1mk[0m|[30;1mr[0m|| 8
[32;1m[Board] [0m  -------------------
[32;1m[Board] [0m7 || |[30;1mp[0m|[30;1mp[0m|[7;1m [0m|[30;1mp[0m|[30;1mp[0m| |[30;1mp[0m|| 7
[32;1m[Board] [0m  -------------------
[32;1m[Board] [0m6 ||[7;1m [0m| |[7;1m [0m| |[7;1m [0m| |[7;1m [0m| || 6
[32;1m[Board] [0m  -------------------
[32;1m[Board] [0m5 || |[7;1m [0m| |[7;1m [0m|[30;1mk[0m|[7;1m [0m| |[7;1m [0m|| 5
[32;1m[Board] [0m  -------------------
[32;1m[Board] [0m4 ||[7;1m [0m|[30;1mp[0m|[7;1m [0m| |[7;1m [0m| |[7;1m [0m|[30;1mp[0m|| 4
[32;1m[Board] [0m  -------------------
[32;1m[Board] [0m3 || |[7;1m [0m| |[7;1m [0m| |[7;1m [0m| |[7;1m [0m|| 3
[32;1m[Board] [0m  -------------------
[32;1m[Board] [0m2 ||[7;1m [0m| |[7;1m [0m|[0;1mK[0m|[7;1m [0m| |[7;1m [0m| || 2
[32;1m[Board] [0m  -------------------
[32;1m[Board] [0m1 || |[7;1m [0m| |[7;1m [0m| |[7;1m [0m| |[7;1m [0m|| 1
[32;1m[Board] [0m  -------------------
[32;1m[Board] [0m    a b c d e f g h
[32;1m[Board] [0m
[32;1m[Referee] [0mThis is the turn of the White player...
[32;1m[Board] [0m[33;1m[WARNING][0m [5;1mWhite King in check![0m
[32;1m[Board] [0m[33;1m[WARNING][0m    Threatened by Black Queen (d8)
Input file: championship/lizzie-iii-chess_and_the_city/history.csv
Output file: championship/lizzie-iii-chess_and_the_city/move.csv
Turn of: white
Succesful move
f2f3
8 | R N B Q K B N R 
7 | P P P P P P P P 
6 | _ _ _ _ _ _ _ _ 
5 | _ _ _ _ _ _ _ _ 
4 | _ _ _ _ _ _ _ _ 
3 | _ _ _ _ _ P _ _ 
2 | P P P P P _ P P 
1 | R N B Q K B N R 
-------------------
  | A B C D E F G H 

Turn of: black
Succesful move
a7a6
8 | R N B Q K B N R 
7 | _ P P P P P P P 
6 | P _ _ _ _ _ _ _ 
5 | _ _ _ _ _ _ _ _ 
4 | _ _ _ _ _ _ _ _ 
3 | _ _ _ _ _ P _ _ 
2 | P P P P P _ P P 
1 | R N B Q K B N R 
-------------------
  | A B C D E F G H 

Turn of: white
Succesful move
a2a4
8 | R N B Q K B N R 
7 | _ P P P P P P P 
6 | P _ _ _ _ _ _ _ 
5 | _ _ _ _ _ _ _ _ 
4 | P _ _ _ _ _ _ _ 
3 | _ _ _ _ _ P _ _ 
2 | _ P P P P _ P P 
1 | R N B Q K B N R 
-------------------
  | A B C D E F G H 

Turn of: black
Succesful move
a6a5
8 | R N B Q K B N R 
7 | _ P P P P P P P 
6 | _ _ _ _ _ _ _ _ 
5 | P _ _ _ _ _ _ _ 
4 | P _ _ _ _ _ _ _ 
3 | _ _ _ _ _ P _ _ 
2 | _ P P P P _ P P 
1 | R N B Q K B N R 
-------------------
  | A B C D E F G H 

Turn of: white
Succesful move
d2d3
8 | R N B Q K B N R 
7 | _ P P P P P P P 
6 | _ _ _ _ _ _ _ _ 
5 | P _ _ _ _ _ _ _ 
4 | P _ _ _ _ _ _ _ 
3 | _ _ _ P _ P _ _ 
2 | _ P P _ P _ P P 
1 | R N B Q K B N R 
-------------------
  | A B C D E F G H 

Turn of: black
Succesful move
g7g6
8 | R N B Q K B N R 
7 | _ P P P P P _ P 
6 | _ _ _ _ _ _ P _ 
5 | P _ _ _ _ _ _ _ 
4 | P _ _ _ _ _ _ _ 
3 | _ _ _ P _ P _ _ 
2 | _ P P _ P _ P P 
1 | R N B Q K B N R 
-------------------
  | A B C D E F G H 

Turn of: white
Succesful move
e2e4
8 | R N B Q K B N R 
7 | _ P P P P P _ P 
6 | _ _ _ _ _ _ P _ 
5 | P _ _ _ _ _ _ _ 
4 | P _ _ _ P _ _ _ 
3 | _ _ _ P _ P _ _ 
2 | _ P P _ _ _ P P 
1 | R N B Q K B N R 
-------------------
  | A B C D E F G H 

Turn of: black
Succesful move
g6g5
8 | R N B Q K B N R 
7 | _ P P P P P _ P 
6 | _ _ _ _ _ _ _ _ 
5 | P _ _ _ _ _ P _ 
4 | P _ _ _ P _ _ _ 
3 | _ _ _ P _ P _ _ 
2 | _ P P _ _ _ P P 
1 | R N B Q K B N R 
-------------------
  | A B C D E F G H 

Turn of: white
Succesful move
b2b4
8 | R N B Q K B N R 
7 | _ P P P P P _ P 
6 | _ _ _ _ _ _ _ _ 
5 | P _ _ _ _ _ P _ 
4 | P P _ _ P _ _ _ 
3 | _ _ _ P _ P _ _ 
2 | _ _ P _ _ _ P P 
1 | R N B Q K B N R 
-------------------
  | A B C D E F G H 

Turn of: black
Succesful move
a5b4
8 | R N B Q K B N R 
7 | _ P P P P P _ P 
6 | _ _ _ _ _ _ _ _ 
5 | _ _ _ _ _ _ P _ 
4 | P P _ _ P _ _ _ 
3 | _ _ _ P _ P _ _ 
2 | _ _ P _ _ _ P P 
1 | R N B Q K B N R 
-------------------
  | A B C D E F G H 

Turn of: white
Succesful move
c2c3
8 | R N B Q K B N R 
7 | _ P P P P P _ P 
6 | _ _ _ _ _ _ _ _ 
5 | _ _ _ _ _ _ P _ 
4 | P P _ _ P _ _ _ 
3 | _ _ P P _ P _ _ 
2 | _ _ _ _ _ _ P P 
1 | R N B Q K B N R 
-------------------
  | A B C D E F G H 

Turn of: black
Succesful move
a8a4
8 | _ N B Q K B N R 
7 | _ P P P P P _ P 
6 | _ _ _ _ _ _ _ _ 
5 | _ _ _ _ _ _ P _ 
4 | R P _ _ P _ _ _ 
3 | _ _ P P _ P _ _ 
2 | _ _ _ _ _ _ P P 
1 | R N B Q K B N R 
-------------------
  | A B C D E F G H 

Turn of: white
Succesful move
g1h3
8 | _ N B Q K B N R 
7 | _ P P P P P _ P 
6 | _ _ _ _ _ _ _ _ 
5 | _ _ _ _ _ _ P _ 
4 | R P _ _ P _ _ _ 
3 | _ _ P P _ P _ N 
2 | _ _ _ _ _ _ P P 
1 | R N B Q K B _ R 
-------------------
  | A B C D E F G H 

Turn of: black
Succesful move
a4a1
8 | _ N B Q K B N R 
7 | _ P P P P P _ P 
6 | _ _ _ _ _ _ _ _ 
5 | _ _ _ _ _ _ P _ 
4 | _ P _ _ P _ _ _ 
3 | _ _ P P _ P _ N 
2 | _ _ _ _ _ _ P P 
1 | R N B Q K B _ R 
-------------------
  | A B C D E F G H 

Turn of: white
Succesful move
h3f2
8 | _ N B Q K B N R 
7 | _ P P P P P _ P 
6 | _ _ _ _ _ _ _ _ 
5 | _ _ _ _ _ _ P _ 
4 | _ P _ _ P _ _ _ 
3 | _ _ P P _ P _ _ 
2 | _ _ _ _ _ N P P 
1 | R N B Q K B _ R 
-------------------
  | A B C D E F G H 

Turn of: black
Succesful move
a1b1
8 | _ N B Q K B N R 
7 | _ P P P P P _ P 
6 | _ _ _ _ _ _ _ _ 
5 | _ _ _ _ _ _ P _ 
4 | _ P _ _ P _ _ _ 
3 | _ _ P P _ P _ _ 
2 | _ _ _ _ _ N P P 
1 | _ R B Q K B _ R 
-------------------
  | A B C D E F G H 

Turn of: white
Succesful move
d1b3
8 | _ N B Q K B N R 
7 | _ P P P P P _ P 
6 | _ _ _ _ _ _ _ _ 
5 | _ _ _ _ _ _ P _ 
4 | _ P _ _ P _ _ _ 
3 | _ Q P P _ P _ _ 
2 | _ _ _ _ _ N P P 
1 | _ R B _ K B _ R 
-------------------
  | A B C D E F G H 

Turn of: black
Succesful move
b1b3
8 | _ N B Q K B N R 
7 | _ P P P P P _ P 
6 | _ _ _ _ _ _ _ _ 
5 | _ _ _ _ _ _ P _ 
4 | _ P _ _ P _ _ _ 
3 | _ R P P _ P _ _ 
2 | _ _ _ _ _ N P P 
1 | _ _ B _ K B _ R 
-------------------
  | A B C D E F G H 

Turn of: white
Succesful move
h2h4
8 | _ N B Q K B N R 
7 | _ P P P P P _ P 
6 | _ _ _ _ _ _ _ _ 
5 | _ _ _ _ _ _ P _ 
4 | _ P _ _ P _ _ P 
3 | _ R P P _ P _ _ 
2 | _ _ _ _ _ N P _ 
1 | _ _ B _ K B _ R 
-------------------
  | A B C D E F G H 

Turn of: black
Succesful move
b3c3
8 | _ N B Q K B N R 
7 | _ P P P P P _ P 
6 | _ _ _ _ _ _ _ _ 
5 | _ _ _ _ _ _ P _ 
4 | _ P _ _ P _ _ P 
3 | _ _ R P _ P _ _ 
2 | _ _ _ _ _ N P _ 
1 | _ _ B _ K B _ R 
-------------------
  | A B C D E F G H 

Turn of: white
Succesful move
c1e3
8 | _ N B Q K B N R 
7 | _ P P P P P _ P 
6 | _ _ _ _ _ _ _ _ 
5 | _ _ _ _ _ _ P _ 
4 | _ P _ _ P _ _ P 
3 | _ _ R P B P _ _ 
2 | _ _ _ _ _ N P _ 
1 | _ _ _ _ K B _ R 
-------------------
  | A B C D E F G H 

Turn of: black
Succesful move
c3d3
8 | _ N B Q K B N R 
7 | _ P P P P P _ P 
6 | _ _ _ _ _ _ _ _ 
5 | _ _ _ _ _ _ P _ 
4 | _ P _ _ P _ _ P 
3 | _ _ _ R B P _ _ 
2 | _ _ _ _ _ N P _ 
1 | _ _ _ _ K B _ R 
-------------------
  | A B C D E F G H 

Turn of: white
Succesful move
e3a7
8 | _ N B Q K B N R 
7 | B P P P P P _ P 
6 | _ _ _ _ _ _ _ _ 
5 | _ _ _ _ _ _ P _ 
4 | _ P _ _ P _ _ P 
3 | _ _ _ R _ P _ _ 
2 | _ _ _ _ _ N P _ 
1 | _ _ _ _ K B _ R 
-------------------
  | A B C D E F G H 

Turn of: black
Succesful move
d3f3
8 | _ N B Q K B N R 
7 | B P P P P P _ P 
6 | _ _ _ _ _ _ _ _ 
5 | _ _ _ _ _ _ P _ 
4 | _ P _ _ P _ _ P 
3 | _ _ _ _ _ R _ _ 
2 | _ _ _ _ _ N P _ 
1 | _ _ _ _ K B _ R 
-------------------
  | A B C D E F G H 

Turn of: white
Succesful move
a7d4
8 | _ N B Q K B N R 
7 | _ P P P P P _ P 
6 | _ _ _ _ _ _ _ _ 
5 | _ _ _ _ _ _ P _ 
4 | _ P _ B P _ _ P 
3 | _ _ _ _ _ R _ _ 
2 | _ _ _ _ _ N P _ 
1 | _ _ _ _ K B _ R 
-------------------
  | A B C D E F G H 

Turn of: black
Succesful move
f3f2
8 | _ N B Q K B N R 
7 | _ P P P P P _ P 
6 | _ _ _ _ _ _ _ _ 
5 | _ _ _ _ _ _ P _ 
4 | _ P _ B P _ _ P 
3 | _ _ _ _ _ _ _ _ 
2 | _ _ _ _ _ R P _ 
1 | _ _ _ _ K B _ R 
-------------------
  | A B C D E F G H 

Turn of: white
Succesful move
f1c4
8 | _ N B Q K B N R 
7 | _ P P P P P _ P 
6 | _ _ _ _ _ _ _ _ 
5 | _ _ _ _ _ _ P _ 
4 | _ P B B P _ _ P 
3 | _ _ _ _ _ _ _ _ 
2 | _ _ _ _ _ R P _ 
1 | _ _ _ _ K _ _ R 
-------------------
  | A B C D E F G H 

Turn of: black
Succesful move
f2g2
8 | _ N B Q K B N R 
7 | _ P P P P P _ P 
6 | _ _ _ _ _ _ _ _ 
5 | _ _ _ _ _ _ P _ 
4 | _ P B B P _ _ P 
3 | _ _ _ _ _ _ _ _ 
2 | _ _ _ _ _ _ R _ 
1 | _ _ _ _ K _ _ R 
-------------------
  | A B C D E F G H 

Turn of: white
Succesful move
c4b5
8 | _ N B Q K B N R 
7 | _ P P P P P _ P 
6 | _ _ _ _ _ _ _ _ 
5 | _ B _ _ _ _ P _ 
4 | _ P _ B P _ _ P 
3 | _ _ _ _ _ _ _ _ 
2 | _ _ _ _ _ _ R _ 
1 | _ _ _ _ K _ _ R 
-------------------
  | A B C D E F G H 

Turn of: black
Succesful move
g5h4
8 | _ N B Q K B N R 
7 | _ P P P P P _ P 
6 | _ _ _ _ _ _ _ _ 
5 | _ B _ _ _ _ _ _ 
4 | _ P _ B P _ _ P 
3 | _ _ _ _ _ _ _ _ 
2 | _ _ _ _ _ _ R _ 
1 | _ _ _ _ K _ _ R 
-------------------
  | A B C D E F G H 

Turn of: white
Succesful move
b5d7
8 | _ N B Q K B N R 
7 | _ P P B P P _ P 
6 | _ _ _ _ _ _ _ _ 
5 | _ _ _ _ _ _ _ _ 
4 | _ P _ B P _ _ P 
3 | _ _ _ _ _ _ _ _ 
2 | _ _ _ _ _ _ R _ 
1 | _ _ _ _ K _ _ R 
-------------------
  | A B C D E F G H 

Turn of: black
Succesful move
b8d7
8 | _ _ B Q K B N R 
7 | _ P P N P P _ P 
6 | _ _ _ _ _ _ _ _ 
5 | _ _ _ _ _ _ _ _ 
4 | _ P _ B P _ _ P 
3 | _ _ _ _ _ _ _ _ 
2 | _ _ _ _ _ _ R _ 
1 | _ _ _ _ K _ _ R 
-------------------
  | A B C D E F G H 

Turn of: white
Succesful move
h1h2
8 | _ _ B Q K B N R 
7 | _ P P N P P _ P 
6 | _ _ _ _ _ _ _ _ 
5 | _ _ _ _ _ _ _ _ 
4 | _ P _ B P _ _ P 
3 | _ _ _ _ _ _ _ _ 
2 | _ _ _ _ _ _ R R 
1 | _ _ _ _ K _ _ _ 
-------------------
  | A B C D E F G H 

Turn of: black
Succesful move
g2h2
8 | _ _ B Q K B N R 
7 | _ P P N P P _ P 
6 | _ _ _ _ _ _ _ _ 
5 | _ _ _ _ _ _ _ _ 
4 | _ P _ B P _ _ P 
3 | _ _ _ _ _ _ _ _ 
2 | _ _ _ _ _ _ _ R 
1 | _ _ _ _ K _ _ _ 
-------------------
  | A B C D E F G H 

Turn of: white
Succesful move
e4e5
8 | _ _ B Q K B N R 
7 | _ P P N P P _ P 
6 | _ _ _ _ _ _ _ _ 
5 | _ _ _ _ P _ _ _ 
4 | _ P _ B _ _ _ P 
3 | _ _ _ _ _ _ _ _ 
2 | _ _ _ _ _ _ _ R 
1 | _ _ _ _ K _ _ _ 
-------------------
  | A B C D E F G H 

Turn of: black
Succesful move
d7e5
8 | _ _ B Q K B N R 
7 | _ P P _ P P _ P 
6 | _ _ _ _ _ _ _ _ 
5 | _ _ _ _ N _ _ _ 
4 | _ P _ B _ _ _ P 
3 | _ _ _ _ _ _ _ _ 
2 | _ _ _ _ _ _ _ R 
1 | _ _ _ _ K _ _ _ 
-------------------
  | A B C D E F G H 

Turn of: white
Succesful move
d4e3
8 | _ _ B Q K B N R 
7 | _ P P _ P P _ P 
6 | _ _ _ _ _ _ _ _ 
5 | _ _ _ _ N _ _ _ 
4 | _ P _ _ _ _ _ P 
3 | _ _ _ _ B _ _ _ 
2 | _ _ _ _ _ _ _ R 
1 | _ _ _ _ K _ _ _ 
-------------------
  | A B C D E F G H 

Turn of: black
Succesful move
c8d7
8 | _ _ _ Q K B N R 
7 | _ P P B P P _ P 
6 | _ _ _ _ _ _ _ _ 
5 | _ _ _ _ N _ _ _ 
4 | _ P _ _ _ _ _ P 
3 | _ _ _ _ B _ _ _ 
2 | _ _ _ _ _ _ _ R 
1 | _ _ _ _ K _ _ _ 
-------------------
  | A B C D E F G H 

Turn of: white
Succesful move
e3d2
8 | _ _ _ Q K B N R 
7 | _ P P B P P _ P 
6 | _ _ _ _ _ _ _ _ 
5 | _ _ _ _ N _ _ _ 
4 | _ P _ _ _ _ _ P 
3 | _ _ _ _ _ _ _ _ 
2 | _ _ _ B _ _ _ R 
1 | _ _ _ _ K _ _ _ 
-------------------
  | A B C D E F G H 

Turn of: black
Succesful move
h2d2
8 | _ _ _ Q K B N R 
7 | _ P P B P P _ P 
6 | _ _ _ _ _ _ _ _ 
5 | _ _ _ _ N _ _ _ 
4 | _ P _ _ _ _ _ P 
3 | _ _ _ _ _ _ _ _ 
2 | _ _ _ R _ _ _ _ 
1 | _ _ _ _ K _ _ _ 
-------------------
  | A B C D E F G H 

Turn of: white
Succesful move
e1d2
8 | _ _ _ Q K B N R 
7 | _ P P B P P _ P 
6 | _ _ _ _ _ _ _ _ 
5 | _ _ _ _ N _ _ _ 
4 | _ P _ _ _ _ _ P 
3 | _ _ _ _ _ _ _ _ 
2 | _ _ _ K _ _ _ _ 
1 | _ _ _ _ _ _ _ _ 
-------------------
  | A B C D E F G H 

Turn of: black
Succesful move
d7c8
8 | _ _ B Q K B N R 
7 | _ P P _ P P _ P 
6 | _ _ _ _ _ _ _ _ 
5 | _ _ _ _ N _ _ _ 
4 | _ P _ _ _ _ _ P 
3 | _ _ _ _ _ _ _ _ 
2 | _ _ _ K _ _ _ _ 
1 | _ _ _ _ _ _ _ _ 
-------------------
  | A B C D E F G H 

We are playing as White
Move history:
f2f3
a7a6
a2a4
a6a5
d2d3
g7g6
e2e4
g6g5
b2b4
a5b4
c2c3
a8a4
g1h3
a4a1
h3f2
a1b1
d1b3
b1b3
h2h4
b3c3
c1e3
c3d3
e3a7
d3f3
a7d4
f3f2
f1c4
f2g2
c4b5
g5h4
b5d7
b8d7
h1h2
g2h2
e4e5
d7e5
d4e3
c8d7
e3d2
h2d2
e1d2
d7c8
8 | _ _ B Q K B N R 
7 | _ P P _ P P _ P 
6 | _ _ _ _ _ _ _ _ 
5 | _ _ _ _ N _ _ _ 
4 | _ P _ _ _ _ _ P 
3 | _ _ _ _ _ _ _ _ 
2 | _ _ _ K _ _ _ _ 
1 | _ _ _ _ _ _ _ _ 
-------------------
  | A B C D E F G H 

It is white's turn to play.
AI's move: d2e3
Move written: d2e3
[32;1m[Game] [0mPlayer's error code: 0
[32;1m[Game] [0mChecking move validity...
[32;1m[Board] [0mInitializing board...
[32;1m[Board] [0mLoading history file `championship/lizzie-iii-chess_and_the_city/history.csv`...
[32;1m[Board] [0mLoaded 42 move(s).
[32;1m[Board] [0mLoading move file `championship/lizzie-iii-chess_and_the_city/move.csv`...
[32;1m[Board] [0mWhite player is playing d2 to e3.
[32;1m[Board] [0m
[32;1m[Board] [0m    a b c d e f g h 
[32;1m[Board] [0m  -------------------
[32;1m[Board] [0m8 ||[7;1m [0m| |[30;1mb[0m|[30;1mQ[0m|[30;1mK[0m|[30;1mb[0m|[30;1mk[0m|[30;1mr[0m|| 8
[32;1m[Board] [0m  -------------------
[32;1m[Board] [0m7 || |[30;1mp[0m|[30;1mp[0m|[7;1m [0m|[30;1mp[0m|[30;1mp[0m| |[30;1mp[0m|| 7
[32;1m[Board] [0m  -------------------
[32;1m[Board] [0m6 ||[7;1m [0m| |[7;1m [0m| |[7;1m [0m| |[7;1m [0m| || 6
[32;1m[Board] [0m  -------------------
[32;1m[Board] [0m5 || |[7;1m [0m| |[7;1m [0m|[30;1mk[0m|[7;1m [0m| |[7;1m [0m|| 5
[32;1m[Board] [0m  -------------------
[32;1m[Board] [0m4 ||[7;1m [0m|[30;1mp[0m|[7;1m [0m| |[7;1m [0m| |[7;1m [0m|[30;1mp[0m|| 4
[32;1m[Board] [0m  -------------------
[32;1m[Board] [0m3 || |[7;1m [0m| |[7;1m [0m|[0;1mK[0m|[7;1m [0m| |[7;1m [0m|| 3
[32;1m[Board] [0m  -------------------
[32;1m[Board] [0m2 ||[7;1m [0m| |[7;1m [0m| |[7;1m [0m| |[7;1m [0m| || 2
[32;1m[Board] [0m  -------------------
[32;1m[Board] [0m1 || |[7;1m [0m| |[7;1m [0m| |[7;1m [0m| |[7;1m [0m|| 1
[32;1m[Board] [0m  -------------------
[32;1m[Board] [0m    a b c d e f g h
[32;1m[Board] [0m
[32;1m[Referee] [0mThis is the turn of the Black player...
Initial board:
--------------------
8| r h b q k b h r |
7| p p p p p p p p |
6| . . . . . . . . |
5| . . . . . . . . |
4| . . . . . . . . |
3| . . . . . . . . |
2| P P P P P P P P |
1| R H B Q K B H R |
--------------------
   a b c d e f g h
After reading:
terminate called after throwing an instance of 'std::runtime_error'
  what():  Invalid move: No piece found at the 'from' position.
[32;1m[Game] [0mPlayer's error code: 6
[32;1m[Game] [0mChecking move validity...
[32;1m[Board] [0mInitializing board...
[32;1m[Board] [0mLoading history file `championship/lizzie-iii-chess_and_the_city/history.csv`...
[32;1m[Board] [0mLoaded 43 move(s).
[32;1m[Board] [0mLoading move file `championship/lizzie-iii-chess_and_the_city/move.csv`...
[32;1m[Board] [0mBlack player is playing d2 to e3.
[32;1m[Board] [0m[31;1m[ERROR][0m Move source (d2) contains no piece :(
[32;1m[Referee] [0mInvalid move (code: -3) :(
[32;1m[Game] [0mBlack player has lost on illegal move.
