[32;1m[Board] [0mInitializing board...
[32;1m[Board] [0m
[32;1m[Board] [0m    a b c d e f g h 
[32;1m[Board] [0m  -------------------
[32;1m[Board] [0m8 ||[30;1mr[0m|[30;1mk[0m|[30;1mb[0m|[30;1mQ[0m|[30;1mK[0m|[30;1mb[0m|[30;1mk[0m|[30;1mr[0m|| 8
[32;1m[Board] [0m  -------------------
[32;1m[Board] [0m7 ||[30;1mp[0m|[30;1mp[0m|[30;1mp[0m|[30;1mp[0m|[30;1mp[0m|[30;1mp[0m|[30;1mp[0m|[30;1mp[0m|| 7
[32;1m[Board] [0m  -------------------
[32;1m[Board] [0m6 ||[7;1m [0m| |[7;1m [0m| |[7;1m [0m| |[7;1m [0m| || 6
[32;1m[Board] [0m  -------------------
[32;1m[Board] [0m5 || |[7;1m [0m| |[7;1m [0m| |[7;1m [0m| |[7;1m [0m|| 5
[32;1m[Board] [0m  -------------------
[32;1m[Board] [0m4 ||[7;1m [0m| |[7;1m [0m| |[7;1m [0m| |[7;1m [0m| || 4
[32;1m[Board] [0m  -------------------
[32;1m[Board] [0m3 || |[7;1m [0m| |[7;1m [0m| |[7;1m [0m| |[7;1m [0m|| 3
[32;1m[Board] [0m  -------------------
[32;1m[Board] [0m2 ||[0;1mp[0m|[0;1mp[0m|[0;1mp[0m|[0;1mp[0m|[0;1mp[0m|[0;1mp[0m|[0;1mp[0m|[0;1mp[0m|| 2
[32;1m[Board] [0m  -------------------
[32;1m[Board] [0m1 ||[0;1mr[0m|[0;1mk[0m|[0;1mb[0m|[0;1mQ[0m|[0;1mK[0m|[0;1mb[0m|[0;1mk[0m|[0;1mr[0m|| 1
[32;1m[Board] [0m  -------------------
[32;1m[Board] [0m    a b c d e f g h
[32;1m[Board] [0m
[32;1m[Referee] [0mThis is the turn of the White player...
Input file: championship/lizzie-iii-logic-and-proofs/history.csv
Output file: championship/lizzie-iii-logic-and-proofs/move.csv
We are playing as White
Move history:
8 | R N B Q K B N R 
7 | P P P P P P P P 
6 | _ _ _ _ _ _ _ _ 
5 | _ _ _ _ _ _ _ _ 
4 | _ _ _ _ _ _ _ _ 
3 | _ _ _ _ _ _ _ _ 
2 | P P P P P P P P 
1 | R N B Q K B N R 
-------------------
  | A B C D E F G H 

It is white's turn to play.
AI's move: b2b4
Move written: b2b4
[32;1m[Game] [0mPlayer's error code: 0
[32;1m[Game] [0mChecking move validity...
[32;1m[Board] [0mInitializing board...
[32;1m[Board] [0mLoading history file `championship/lizzie-iii-logic-and-proofs/history.csv`...
[32;1m[Board] [0mLoaded 0 move(s).
[32;1m[Board] [0mLoading move file `championship/lizzie-iii-logic-and-proofs/move.csv`...
[32;1m[Board] [0mWhite player is playing b2 to b4.
[32;1m[Board] [0m
[32;1m[Board] [0m    a b c d e f g h 
[32;1m[Board] [0m  -------------------
[32;1m[Board] [0m8 ||[30;1mr[0m|[30;1mk[0m|[30;1mb[0m|[30;1mQ[0m|[30;1mK[0m|[30;1mb[0m|[30;1mk[0m|[30;1mr[0m|| 8
[32;1m[Board] [0m  -------------------
[32;1m[Board] [0m7 ||[30;1mp[0m|[30;1mp[0m|[30;1mp[0m|[30;1mp[0m|[30;1mp[0m|[30;1mp[0m|[30;1mp[0m|[30;1mp[0m|| 7
[32;1m[Board] [0m  -------------------
[32;1m[Board] [0m6 ||[7;1m [0m| |[7;1m [0m| |[7;1m [0m| |[7;1m [0m| || 6
[32;1m[Board] [0m  -------------------
[32;1m[Board] [0m5 || |[7;1m [0m| |[7;1m [0m| |[7;1m [0m| |[7;1m [0m|| 5
[32;1m[Board] [0m  -------------------
[32;1m[Board] [0m4 ||[7;1m [0m|[0;1mp[0m|[7;1m [0m| |[7;1m [0m| |[7;1m [0m| || 4
[32;1m[Board] [0m  -------------------
[32;1m[Board] [0m3 || |[7;1m [0m| |[7;1m [0m| |[7;1m [0m| |[7;1m [0m|| 3
[32;1m[Board] [0m  -------------------
[32;1m[Board] [0m2 ||[0;1mp[0m| |[0;1mp[0m|[0;1mp[0m|[0;1mp[0m|[0;1mp[0m|[0;1mp[0m|[0;1mp[0m|| 2
[32;1m[Board] [0m  -------------------
[32;1m[Board] [0m1 ||[0;1mr[0m|[0;1mk[0m|[0;1mb[0m|[0;1mQ[0m|[0;1mK[0m|[0;1mb[0m|[0;1mk[0m|[0;1mr[0m|| 1
[32;1m[Board] [0m  -------------------
[32;1m[Board] [0m    a b c d e f g h
[32;1m[Board] [0m
[32;1m[Referee] [0mThis is the turn of the Black player...
[DEBUG] Input history filename: championship/lizzie-iii-logic-and-proofs/history.csv
[DEBUG] Output move file: championship/lizzie-iii-logic-and-proofs/move.csv
starting search...
searched and found best move in search: 25608
Total nodes searched: 2628
how i see the board before writing next move: Turn: Black
Enpassant: b3	Castling: WK WQ BK BQ 
   ---- ---- ---- ---- ---- ---- ---- ----
8 | r  | n  | b  | q  | k  | b  | n  | r  |
   ---- ---- ---- ---- ---- ---- ---- ----
7 | p  | p  | p  | p  | p  | p  | p  | p  |
   ---- ---- ---- ---- ---- ---- ---- ----
6 |    |    |    |    |    |    |    |    |
   ---- ---- ---- ---- ---- ---- ---- ----
5 |    |    |    |    |    |    |    |    |
   ---- ---- ---- ---- ---- ---- ---- ----
4 |    | P  |    |    |    |    |    |    |
   ---- ---- ---- ---- ---- ---- ---- ----
3 |    |    |    |    |    |    |    |    |
   ---- ---- ---- ---- ---- ---- ---- ----
2 | P  |    | P  | P  | P  | P  | P  | P  |
   ---- ---- ---- ---- ---- ---- ---- ----
1 | R  | N  | B  | Q  | K  | B  | N  | R  |
   ---- ---- ---- ---- ---- ---- ---- ----
    a    b    c    d    e    f    g    h
[DEBUG] [Parser] Wrote to ouput file championship/lizzie-iii-logic-and-proofs/move.csv move : a7a6
[32;1m[Game] [0mPlayer's error code: 0
[32;1m[Game] [0mChecking move validity...
[32;1m[Board] [0mInitializing board...
[32;1m[Board] [0mLoading history file `championship/lizzie-iii-logic-and-proofs/history.csv`...
[32;1m[Board] [0mLoaded 1 move(s).
[32;1m[Board] [0mLoading move file `championship/lizzie-iii-logic-and-proofs/move.csv`...
[32;1m[Board] [0mBlack player is playing a7 to a6.
[32;1m[Board] [0m
[32;1m[Board] [0m    a b c d e f g h 
[32;1m[Board] [0m  -------------------
[32;1m[Board] [0m8 ||[30;1mr[0m|[30;1mk[0m|[30;1mb[0m|[30;1mQ[0m|[30;1mK[0m|[30;1mb[0m|[30;1mk[0m|[30;1mr[0m|| 8
[32;1m[Board] [0m  -------------------
[32;1m[Board] [0m7 || |[30;1mp[0m|[30;1mp[0m|[30;1mp[0m|[30;1mp[0m|[30;1mp[0m|[30;1mp[0m|[30;1mp[0m|| 7
[32;1m[Board] [0m  -------------------
[32;1m[Board] [0m6 ||[30;1mp[0m| |[7;1m [0m| |[7;1m [0m| |[7;1m [0m| || 6
[32;1m[Board] [0m  -------------------
[32;1m[Board] [0m5 || |[7;1m [0m| |[7;1m [0m| |[7;1m [0m| |[7;1m [0m|| 5
[32;1m[Board] [0m  -------------------
[32;1m[Board] [0m4 ||[7;1m [0m|[0;1mp[0m|[7;1m [0m| |[7;1m [0m| |[7;1m [0m| || 4
[32;1m[Board] [0m  -------------------
[32;1m[Board] [0m3 || |[7;1m [0m| |[7;1m [0m| |[7;1m [0m| |[7;1m [0m|| 3
[32;1m[Board] [0m  -------------------
[32;1m[Board] [0m2 ||[0;1mp[0m| |[0;1mp[0m|[0;1mp[0m|[0;1mp[0m|[0;1mp[0m|[0;1mp[0m|[0;1mp[0m|| 2
[32;1m[Board] [0m  -------------------
[32;1m[Board] [0m1 ||[0;1mr[0m|[0;1mk[0m|[0;1mb[0m|[0;1mQ[0m|[0;1mK[0m|[0;1mb[0m|[0;1mk[0m|[0;1mr[0m|| 1
[32;1m[Board] [0m  -------------------
[32;1m[Board] [0m    a b c d e f g h
[32;1m[Board] [0m
[32;1m[Referee] [0mThis is the turn of the White player...
Input file: championship/lizzie-iii-logic-and-proofs/history.csv
Output file: championship/lizzie-iii-logic-and-proofs/move.csv
Turn of: white
Succesful move
b2b4
8 | R N B Q K B N R 
7 | P P P P P P P P 
6 | _ _ _ _ _ _ _ _ 
5 | _ _ _ _ _ _ _ _ 
4 | _ P _ _ _ _ _ _ 
3 | _ _ _ _ _ _ _ _ 
2 | P _ P P P P P P 
1 | R N B Q K B N R 
-------------------
  | A B C D E F G H 

Turn of: black
Succesful move
a7a6
8 | R N B Q K B N R 
7 | _ P P P P P P P 
6 | P _ _ _ _ _ _ _ 
5 | _ _ _ _ _ _ _ _ 
4 | _ P _ _ _ _ _ _ 
3 | _ _ _ _ _ _ _ _ 
2 | P _ P P P P P P 
1 | R N B Q K B N R 
-------------------
  | A B C D E F G H 

We are playing as White
Move history:
b2b4
a7a6
8 | R N B Q K B N R 
7 | _ P P P P P P P 
6 | P _ _ _ _ _ _ _ 
5 | _ _ _ _ _ _ _ _ 
4 | _ P _ _ _ _ _ _ 
3 | _ _ _ _ _ _ _ _ 
2 | P _ P P P P P P 
1 | R N B Q K B N R 
-------------------
  | A B C D E F G H 

It is white's turn to play.
AI's move: c2c4
Move written: c2c4
[32;1m[Game] [0mPlayer's error code: 0
[32;1m[Game] [0mChecking move validity...
[32;1m[Board] [0mInitializing board...
[32;1m[Board] [0mLoading history file `championship/lizzie-iii-logic-and-proofs/history.csv`...
[32;1m[Board] [0mLoaded 2 move(s).
[32;1m[Board] [0mLoading move file `championship/lizzie-iii-logic-and-proofs/move.csv`...
[32;1m[Board] [0mWhite player is playing c2 to c4.
[32;1m[Board] [0m
[32;1m[Board] [0m    a b c d e f g h 
[32;1m[Board] [0m  -------------------
[32;1m[Board] [0m8 ||[30;1mr[0m|[30;1mk[0m|[30;1mb[0m|[30;1mQ[0m|[30;1mK[0m|[30;1mb[0m|[30;1mk[0m|[30;1mr[0m|| 8
[32;1m[Board] [0m  -------------------
[32;1m[Board] [0m7 || |[30;1mp[0m|[30;1mp[0m|[30;1mp[0m|[30;1mp[0m|[30;1mp[0m|[30;1mp[0m|[30;1mp[0m|| 7
[32;1m[Board] [0m  -------------------
[32;1m[Board] [0m6 ||[30;1mp[0m| |[7;1m [0m| |[7;1m [0m| |[7;1m [0m| || 6
[32;1m[Board] [0m  -------------------
[32;1m[Board] [0m5 || |[7;1m [0m| |[7;1m [0m| |[7;1m [0m| |[7;1m [0m|| 5
[32;1m[Board] [0m  -------------------
[32;1m[Board] [0m4 ||[7;1m [0m|[0;1mp[0m|[0;1mp[0m| |[7;1m [0m| |[7;1m [0m| || 4
[32;1m[Board] [0m  -------------------
[32;1m[Board] [0m3 || |[7;1m [0m| |[7;1m [0m| |[7;1m [0m| |[7;1m [0m|| 3
[32;1m[Board] [0m  -------------------
[32;1m[Board] [0m2 ||[0;1mp[0m| |[7;1m [0m|[0;1mp[0m|[0;1mp[0m|[0;1mp[0m|[0;1mp[0m|[0;1mp[0m|| 2
[32;1m[Board] [0m  -------------------
[32;1m[Board] [0m1 ||[0;1mr[0m|[0;1mk[0m|[0;1mb[0m|[0;1mQ[0m|[0;1mK[0m|[0;1mb[0m|[0;1mk[0m|[0;1mr[0m|| 1
[32;1m[Board] [0m  -------------------
[32;1m[Board] [0m    a b c d e f g h
[32;1m[Board] [0m
[32;1m[Referee] [0mThis is the turn of the Black player...
[DEBUG] Input history filename: championship/lizzie-iii-logic-and-proofs/history.csv
[DEBUG] Output move file: championship/lizzie-iii-logic-and-proofs/move.csv
starting search...
searched and found best move in search: 25868
Total nodes searched: 4629
how i see the board before writing next move: Turn: Black
Enpassant: c3	Castling: WK WQ BK BQ 
   ---- ---- ---- ---- ---- ---- ---- ----
8 | r  | n  | b  | q  | k  | b  | n  | r  |
   ---- ---- ---- ---- ---- ---- ---- ----
7 |    | p  | p  | p  | p  | p  | p  | p  |
   ---- ---- ---- ---- ---- ---- ---- ----
6 | p  |    |    |    |    |    |    |    |
   ---- ---- ---- ---- ---- ---- ---- ----
5 |    |    |    |    |    |    |    |    |
   ---- ---- ---- ---- ---- ---- ---- ----
4 |    | P  | P  |    |    |    |    |    |
   ---- ---- ---- ---- ---- ---- ---- ----
3 |    |    |    |    |    |    |    |    |
   ---- ---- ---- ---- ---- ---- ---- ----
2 | P  |    |    | P  | P  | P  | P  | P  |
   ---- ---- ---- ---- ---- ---- ---- ----
1 | R  | N  | B  | Q  | K  | B  | N  | R  |
   ---- ---- ---- ---- ---- ---- ---- ----
    a    b    c    d    e    f    g    h
[DEBUG] [Parser] Wrote to ouput file championship/lizzie-iii-logic-and-proofs/move.csv move : e7e6
[32;1m[Game] [0mPlayer's error code: 0
[32;1m[Game] [0mChecking move validity...
[32;1m[Board] [0mInitializing board...
[32;1m[Board] [0mLoading history file `championship/lizzie-iii-logic-and-proofs/history.csv`...
[32;1m[Board] [0mLoaded 3 move(s).
[32;1m[Board] [0mLoading move file `championship/lizzie-iii-logic-and-proofs/move.csv`...
[32;1m[Board] [0mBlack player is playing e7 to e6.
[32;1m[Board] [0m
[32;1m[Board] [0m    a b c d e f g h 
[32;1m[Board] [0m  -------------------
[32;1m[Board] [0m8 ||[30;1mr[0m|[30;1mk[0m|[30;1mb[0m|[30;1mQ[0m|[30;1mK[0m|[30;1mb[0m|[30;1mk[0m|[30;1mr[0m|| 8
[32;1m[Board] [0m  -------------------
[32;1m[Board] [0m7 || |[30;1mp[0m|[30;1mp[0m|[30;1mp[0m| |[30;1mp[0m|[30;1mp[0m|[30;1mp[0m|| 7
[32;1m[Board] [0m  -------------------
[32;1m[Board] [0m6 ||[30;1mp[0m| |[7;1m [0m| |[30;1mp[0m| |[7;1m [0m| || 6
[32;1m[Board] [0m  -------------------
[32;1m[Board] [0m5 || |[7;1m [0m| |[7;1m [0m| |[7;1m [0m| |[7;1m [0m|| 5
[32;1m[Board] [0m  -------------------
[32;1m[Board] [0m4 ||[7;1m [0m|[0;1mp[0m|[0;1mp[0m| |[7;1m [0m| |[7;1m [0m| || 4
[32;1m[Board] [0m  -------------------
[32;1m[Board] [0m3 || |[7;1m [0m| |[7;1m [0m| |[7;1m [0m| |[7;1m [0m|| 3
[32;1m[Board] [0m  -------------------
[32;1m[Board] [0m2 ||[0;1mp[0m| |[7;1m [0m|[0;1mp[0m|[0;1mp[0m|[0;1mp[0m|[0;1mp[0m|[0;1mp[0m|| 2
[32;1m[Board] [0m  -------------------
[32;1m[Board] [0m1 ||[0;1mr[0m|[0;1mk[0m|[0;1mb[0m|[0;1mQ[0m|[0;1mK[0m|[0;1mb[0m|[0;1mk[0m|[0;1mr[0m|| 1
[32;1m[Board] [0m  -------------------
[32;1m[Board] [0m    a b c d e f g h
[32;1m[Board] [0m
[32;1m[Referee] [0mThis is the turn of the White player...
Input file: championship/lizzie-iii-logic-and-proofs/history.csv
Output file: championship/lizzie-iii-logic-and-proofs/move.csv
Turn of: white
Succesful move
b2b4
8 | R N B Q K B N R 
7 | P P P P P P P P 
6 | _ _ _ _ _ _ _ _ 
5 | _ _ _ _ _ _ _ _ 
4 | _ P _ _ _ _ _ _ 
3 | _ _ _ _ _ _ _ _ 
2 | P _ P P P P P P 
1 | R N B Q K B N R 
-------------------
  | A B C D E F G H 

Turn of: black
Succesful move
a7a6
8 | R N B Q K B N R 
7 | _ P P P P P P P 
6 | P _ _ _ _ _ _ _ 
5 | _ _ _ _ _ _ _ _ 
4 | _ P _ _ _ _ _ _ 
3 | _ _ _ _ _ _ _ _ 
2 | P _ P P P P P P 
1 | R N B Q K B N R 
-------------------
  | A B C D E F G H 

Turn of: white
Succesful move
c2c4
8 | R N B Q K B N R 
7 | _ P P P P P P P 
6 | P _ _ _ _ _ _ _ 
5 | _ _ _ _ _ _ _ _ 
4 | _ P P _ _ _ _ _ 
3 | _ _ _ _ _ _ _ _ 
2 | P _ _ P P P P P 
1 | R N B Q K B N R 
-------------------
  | A B C D E F G H 

Turn of: black
Succesful move
e7e6
8 | R N B Q K B N R 
7 | _ P P P _ P P P 
6 | P _ _ _ P _ _ _ 
5 | _ _ _ _ _ _ _ _ 
4 | _ P P _ _ _ _ _ 
3 | _ _ _ _ _ _ _ _ 
2 | P _ _ P P P P P 
1 | R N B Q K B N R 
-------------------
  | A B C D E F G H 

We are playing as White
Move history:
b2b4
a7a6
c2c4
e7e6
8 | R N B Q K B N R 
7 | _ P P P _ P P P 
6 | P _ _ _ P _ _ _ 
5 | _ _ _ _ _ _ _ _ 
4 | _ P P _ _ _ _ _ 
3 | _ _ _ _ _ _ _ _ 
2 | P _ _ P P P P P 
1 | R N B Q K B N R 
-------------------
  | A B C D E F G H 

It is white's turn to play.
AI's move: c4c5
Move written: c4c5
[32;1m[Game] [0mPlayer's error code: 0
[32;1m[Game] [0mChecking move validity...
[32;1m[Board] [0mInitializing board...
[32;1m[Board] [0mLoading history file `championship/lizzie-iii-logic-and-proofs/history.csv`...
[32;1m[Board] [0mLoaded 4 move(s).
[32;1m[Board] [0mLoading move file `championship/lizzie-iii-logic-and-proofs/move.csv`...
[32;1m[Board] [0mWhite player is playing c4 to c5.
[32;1m[Board] [0m
[32;1m[Board] [0m    a b c d e f g h 
[32;1m[Board] [0m  -------------------
[32;1m[Board] [0m8 ||[30;1mr[0m|[30;1mk[0m|[30;1mb[0m|[30;1mQ[0m|[30;1mK[0m|[30;1mb[0m|[30;1mk[0m|[30;1mr[0m|| 8
[32;1m[Board] [0m  -------------------
[32;1m[Board] [0m7 || |[30;1mp[0m|[30;1mp[0m|[30;1mp[0m| |[30;1mp[0m|[30;1mp[0m|[30;1mp[0m|| 7
[32;1m[Board] [0m  -------------------
[32;1m[Board] [0m6 ||[30;1mp[0m| |[7;1m [0m| |[30;1mp[0m| |[7;1m [0m| || 6
[32;1m[Board] [0m  -------------------
[32;1m[Board] [0m5 || |[7;1m [0m|[0;1mp[0m|[7;1m [0m| |[7;1m [0m| |[7;1m [0m|| 5
[32;1m[Board] [0m  -------------------
[32;1m[Board] [0m4 ||[7;1m [0m|[0;1mp[0m|[7;1m [0m| |[7;1m [0m| |[7;1m [0m| || 4
[32;1m[Board] [0m  -------------------
[32;1m[Board] [0m3 || |[7;1m [0m| |[7;1m [0m| |[7;1m [0m| |[7;1m [0m|| 3
[32;1m[Board] [0m  -------------------
[32;1m[Board] [0m2 ||[0;1mp[0m| |[7;1m [0m|[0;1mp[0m|[0;1mp[0m|[0;1mp[0m|[0;1mp[0m|[0;1mp[0m|| 2
[32;1m[Board] [0m  -------------------
[32;1m[Board] [0m1 ||[0;1mr[0m|[0;1mk[0m|[0;1mb[0m|[0;1mQ[0m|[0;1mK[0m|[0;1mb[0m|[0;1mk[0m|[0;1mr[0m|| 1
[32;1m[Board] [0m  -------------------
[32;1m[Board] [0m    a b c d e f g h
[32;1m[Board] [0m
[32;1m[Referee] [0mThis is the turn of the Black player...
[DEBUG] Input history filename: championship/lizzie-iii-logic-and-proofs/history.csv
[DEBUG] Output move file: championship/lizzie-iii-logic-and-proofs/move.csv
starting search...
searched and found best move in search: 29825
Total nodes searched: 11075
how i see the board before writing next move: Turn: Black
Enpassant: xx	Castling: WK WQ BK BQ 
   ---- ---- ---- ---- ---- ---- ---- ----
8 | r  | n  | b  | q  | k  | b  | n  | r  |
   ---- ---- ---- ---- ---- ---- ---- ----
7 |    | p  | p  | p  |    | p  | p  | p  |
   ---- ---- ---- ---- ---- ---- ---- ----
6 | p  |    |    |    | p  |    |    |    |
   ---- ---- ---- ---- ---- ---- ---- ----
5 |    |    | P  |    |    |    |    |    |
   ---- ---- ---- ---- ---- ---- ---- ----
4 |    | P  |    |    |    |    |    |    |
   ---- ---- ---- ---- ---- ---- ---- ----
3 |    |    |    |    |    |    |    |    |
   ---- ---- ---- ---- ---- ---- ---- ----
2 | P  |    |    | P  | P  | P  | P  | P  |
   ---- ---- ---- ---- ---- ---- ---- ----
1 | R  | N  | B  | Q  | K  | B  | N  | R  |
   ---- ---- ---- ---- ---- ---- ---- ----
    a    b    c    d    e    f    g    h
[DEBUG] [Parser] Wrote to ouput file championship/lizzie-iii-logic-and-proofs/move.csv move : b8c6
[32;1m[Game] [0mPlayer's error code: 0
[32;1m[Game] [0mChecking move validity...
[32;1m[Board] [0mInitializing board...
[32;1m[Board] [0mLoading history file `championship/lizzie-iii-logic-and-proofs/history.csv`...
[32;1m[Board] [0mLoaded 5 move(s).
[32;1m[Board] [0mLoading move file `championship/lizzie-iii-logic-and-proofs/move.csv`...
[32;1m[Board] [0mBlack player is playing b8 to c6.
[32;1m[Board] [0m
[32;1m[Board] [0m    a b c d e f g h 
[32;1m[Board] [0m  -------------------
[32;1m[Board] [0m8 ||[30;1mr[0m| |[30;1mb[0m|[30;1mQ[0m|[30;1mK[0m|[30;1mb[0m|[30;1mk[0m|[30;1mr[0m|| 8
[32;1m[Board] [0m  -------------------
[32;1m[Board] [0m7 || |[30;1mp[0m|[30;1mp[0m|[30;1mp[0m| |[30;1mp[0m|[30;1mp[0m|[30;1mp[0m|| 7
[32;1m[Board] [0m  -------------------
[32;1m[Board] [0m6 ||[30;1mp[0m| |[30;1mk[0m| |[30;1mp[0m| |[7;1m [0m| || 6
[32;1m[Board] [0m  -------------------
[32;1m[Board] [0m5 || |[7;1m [0m|[0;1mp[0m|[7;1m [0m| |[7;1m [0m| |[7;1m [0m|| 5
[32;1m[Board] [0m  -------------------
[32;1m[Board] [0m4 ||[7;1m [0m|[0;1mp[0m|[7;1m [0m| |[7;1m [0m| |[7;1m [0m| || 4
[32;1m[Board] [0m  -------------------
[32;1m[Board] [0m3 || |[7;1m [0m| |[7;1m [0m| |[7;1m [0m| |[7;1m [0m|| 3
[32;1m[Board] [0m  -------------------
[32;1m[Board] [0m2 ||[0;1mp[0m| |[7;1m [0m|[0;1mp[0m|[0;1mp[0m|[0;1mp[0m|[0;1mp[0m|[0;1mp[0m|| 2
[32;1m[Board] [0m  -------------------
[32;1m[Board] [0m1 ||[0;1mr[0m|[0;1mk[0m|[0;1mb[0m|[0;1mQ[0m|[0;1mK[0m|[0;1mb[0m|[0;1mk[0m|[0;1mr[0m|| 1
[32;1m[Board] [0m  -------------------
[32;1m[Board] [0m    a b c d e f g h
[32;1m[Board] [0m
[32;1m[Referee] [0mThis is the turn of the White player...
Input file: championship/lizzie-iii-logic-and-proofs/history.csv
Output file: championship/lizzie-iii-logic-and-proofs/move.csv
Turn of: white
Succesful move
b2b4
8 | R N B Q K B N R 
7 | P P P P P P P P 
6 | _ _ _ _ _ _ _ _ 
5 | _ _ _ _ _ _ _ _ 
4 | _ P _ _ _ _ _ _ 
3 | _ _ _ _ _ _ _ _ 
2 | P _ P P P P P P 
1 | R N B Q K B N R 
-------------------
  | A B C D E F G H 

Turn of: black
Succesful move
a7a6
8 | R N B Q K B N R 
7 | _ P P P P P P P 
6 | P _ _ _ _ _ _ _ 
5 | _ _ _ _ _ _ _ _ 
4 | _ P _ _ _ _ _ _ 
3 | _ _ _ _ _ _ _ _ 
2 | P _ P P P P P P 
1 | R N B Q K B N R 
-------------------
  | A B C D E F G H 

Turn of: white
Succesful move
c2c4
8 | R N B Q K B N R 
7 | _ P P P P P P P 
6 | P _ _ _ _ _ _ _ 
5 | _ _ _ _ _ _ _ _ 
4 | _ P P _ _ _ _ _ 
3 | _ _ _ _ _ _ _ _ 
2 | P _ _ P P P P P 
1 | R N B Q K B N R 
-------------------
  | A B C D E F G H 

Turn of: black
Succesful move
e7e6
8 | R N B Q K B N R 
7 | _ P P P _ P P P 
6 | P _ _ _ P _ _ _ 
5 | _ _ _ _ _ _ _ _ 
4 | _ P P _ _ _ _ _ 
3 | _ _ _ _ _ _ _ _ 
2 | P _ _ P P P P P 
1 | R N B Q K B N R 
-------------------
  | A B C D E F G H 

Turn of: white
Succesful move
c4c5
8 | R N B Q K B N R 
7 | _ P P P _ P P P 
6 | P _ _ _ P _ _ _ 
5 | _ _ P _ _ _ _ _ 
4 | _ P _ _ _ _ _ _ 
3 | _ _ _ _ _ _ _ _ 
2 | P _ _ P P P P P 
1 | R N B Q K B N R 
-------------------
  | A B C D E F G H 

Turn of: black
Succesful move
b8c6
8 | R _ B Q K B N R 
7 | _ P P P _ P P P 
6 | P _ N _ P _ _ _ 
5 | _ _ P _ _ _ _ _ 
4 | _ P _ _ _ _ _ _ 
3 | _ _ _ _ _ _ _ _ 
2 | P _ _ P P P P P 
1 | R N B Q K B N R 
-------------------
  | A B C D E F G H 

We are playing as White
Move history:
b2b4
a7a6
c2c4
e7e6
c4c5
b8c6
8 | R _ B Q K B N R 
7 | _ P P P _ P P P 
6 | P _ N _ P _ _ _ 
5 | _ _ P _ _ _ _ _ 
4 | _ P _ _ _ _ _ _ 
3 | _ _ _ _ _ _ _ _ 
2 | P _ _ P P P P P 
1 | R N B Q K B N R 
-------------------
  | A B C D E F G H 

It is white's turn to play.
AI's move: g2g3
Move written: g2g3
[32;1m[Game] [0mPlayer's error code: 0
[32;1m[Game] [0mChecking move validity...
[32;1m[Board] [0mInitializing board...
[32;1m[Board] [0mLoading history file `championship/lizzie-iii-logic-and-proofs/history.csv`...
[32;1m[Board] [0mLoaded 6 move(s).
[32;1m[Board] [0mLoading move file `championship/lizzie-iii-logic-and-proofs/move.csv`...
[32;1m[Board] [0mWhite player is playing g2 to g3.
[32;1m[Board] [0m
[32;1m[Board] [0m    a b c d e f g h 
[32;1m[Board] [0m  -------------------
[32;1m[Board] [0m8 ||[30;1mr[0m| |[30;1mb[0m|[30;1mQ[0m|[30;1mK[0m|[30;1mb[0m|[30;1mk[0m|[30;1mr[0m|| 8
[32;1m[Board] [0m  -------------------
[32;1m[Board] [0m7 || |[30;1mp[0m|[30;1mp[0m|[30;1mp[0m| |[30;1mp[0m|[30;1mp[0m|[30;1mp[0m|| 7
[32;1m[Board] [0m  -------------------
[32;1m[Board] [0m6 ||[30;1mp[0m| |[30;1mk[0m| |[30;1mp[0m| |[7;1m [0m| || 6
[32;1m[Board] [0m  -------------------
[32;1m[Board] [0m5 || |[7;1m [0m|[0;1mp[0m|[7;1m [0m| |[7;1m [0m| |[7;1m [0m|| 5
[32;1m[Board] [0m  -------------------
[32;1m[Board] [0m4 ||[7;1m [0m|[0;1mp[0m|[7;1m [0m| |[7;1m [0m| |[7;1m [0m| || 4
[32;1m[Board] [0m  -------------------
[32;1m[Board] [0m3 || |[7;1m [0m| |[7;1m [0m| |[7;1m [0m|[0;1mp[0m|[7;1m [0m|| 3
[32;1m[Board] [0m  -------------------
[32;1m[Board] [0m2 ||[0;1mp[0m| |[7;1m [0m|[0;1mp[0m|[0;1mp[0m|[0;1mp[0m|[7;1m [0m|[0;1mp[0m|| 2
[32;1m[Board] [0m  -------------------
[32;1m[Board] [0m1 ||[0;1mr[0m|[0;1mk[0m|[0;1mb[0m|[0;1mQ[0m|[0;1mK[0m|[0;1mb[0m|[0;1mk[0m|[0;1mr[0m|| 1
[32;1m[Board] [0m  -------------------
[32;1m[Board] [0m    a b c d e f g h
[32;1m[Board] [0m
[32;1m[Referee] [0mThis is the turn of the Black player...
[DEBUG] Input history filename: championship/lizzie-iii-logic-and-proofs/history.csv
[DEBUG] Output move file: championship/lizzie-iii-logic-and-proofs/move.csv
starting search...
searched and found best move in search: 1079378
Total nodes searched: 14913
how i see the board before writing next move: Turn: Black
Enpassant: xx	Castling: WK WQ BK BQ 
   ---- ---- ---- ---- ---- ---- ---- ----
8 | r  |    | b  | q  | k  | b  | n  | r  |
   ---- ---- ---- ---- ---- ---- ---- ----
7 |    | p  | p  | p  |    | p  | p  | p  |
   ---- ---- ---- ---- ---- ---- ---- ----
6 | p  |    | n  |    | p  |    |    |    |
   ---- ---- ---- ---- ---- ---- ---- ----
5 |    |    | P  |    |    |    |    |    |
   ---- ---- ---- ---- ---- ---- ---- ----
4 |    | P  |    |    |    |    |    |    |
   ---- ---- ---- ---- ---- ---- ---- ----
3 |    |    |    |    |    |    | P  |    |
   ---- ---- ---- ---- ---- ---- ---- ----
2 | P  |    |    | P  | P  | P  |    | P  |
   ---- ---- ---- ---- ---- ---- ---- ----
1 | R  | N  | B  | Q  | K  | B  | N  | R  |
   ---- ---- ---- ---- ---- ---- ---- ----
    a    b    c    d    e    f    g    h
[DEBUG] [Parser] Wrote to ouput file championship/lizzie-iii-logic-and-proofs/move.csv move : c6b4
[32;1m[Game] [0mPlayer's error code: 0
[32;1m[Game] [0mChecking move validity...
[32;1m[Board] [0mInitializing board...
[32;1m[Board] [0mLoading history file `championship/lizzie-iii-logic-and-proofs/history.csv`...
[32;1m[Board] [0mLoaded 7 move(s).
[32;1m[Board] [0mLoading move file `championship/lizzie-iii-logic-and-proofs/move.csv`...
[32;1m[Board] [0mBlack player is playing c6 to b4.
[32;1m[Board] [0m[5;1mBlack Knight is taking White Pawn.[0m
[32;1m[Board] [0m
[32;1m[Board] [0m    a b c d e f g h 
[32;1m[Board] [0m  -------------------
[32;1m[Board] [0m8 ||[30;1mr[0m| |[30;1mb[0m|[30;1mQ[0m|[30;1mK[0m|[30;1mb[0m|[30;1mk[0m|[30;1mr[0m|| 8
[32;1m[Board] [0m  -------------------
[32;1m[Board] [0m7 || |[30;1mp[0m|[30;1mp[0m|[30;1mp[0m| |[30;1mp[0m|[30;1mp[0m|[30;1mp[0m|| 7
[32;1m[Board] [0m  -------------------
[32;1m[Board] [0m6 ||[30;1mp[0m| |[7;1m [0m| |[30;1mp[0m| |[7;1m [0m| || 6
[32;1m[Board] [0m  -------------------
[32;1m[Board] [0m5 || |[7;1m [0m|[0;1mp[0m|[7;1m [0m| |[7;1m [0m| |[7;1m [0m|| 5
[32;1m[Board] [0m  -------------------
[32;1m[Board] [0m4 ||[7;1m [0m|[30;1mk[0m|[7;1m [0m| |[7;1m [0m| |[7;1m [0m| || 4
[32;1m[Board] [0m  -------------------
[32;1m[Board] [0m3 || |[7;1m [0m| |[7;1m [0m| |[7;1m [0m|[0;1mp[0m|[7;1m [0m|| 3
[32;1m[Board] [0m  -------------------
[32;1m[Board] [0m2 ||[0;1mp[0m| |[7;1m [0m|[0;1mp[0m|[0;1mp[0m|[0;1mp[0m|[7;1m [0m|[0;1mp[0m|| 2
[32;1m[Board] [0m  -------------------
[32;1m[Board] [0m1 ||[0;1mr[0m|[0;1mk[0m|[0;1mb[0m|[0;1mQ[0m|[0;1mK[0m|[0;1mb[0m|[0;1mk[0m|[0;1mr[0m|| 1
[32;1m[Board] [0m  -------------------
[32;1m[Board] [0m    a b c d e f g h
[32;1m[Board] [0m
[32;1m[Referee] [0mThis is the turn of the White player...
Input file: championship/lizzie-iii-logic-and-proofs/history.csv
Output file: championship/lizzie-iii-logic-and-proofs/move.csv
Turn of: white
Succesful move
b2b4
8 | R N B Q K B N R 
7 | P P P P P P P P 
6 | _ _ _ _ _ _ _ _ 
5 | _ _ _ _ _ _ _ _ 
4 | _ P _ _ _ _ _ _ 
3 | _ _ _ _ _ _ _ _ 
2 | P _ P P P P P P 
1 | R N B Q K B N R 
-------------------
  | A B C D E F G H 

Turn of: black
Succesful move
a7a6
8 | R N B Q K B N R 
7 | _ P P P P P P P 
6 | P _ _ _ _ _ _ _ 
5 | _ _ _ _ _ _ _ _ 
4 | _ P _ _ _ _ _ _ 
3 | _ _ _ _ _ _ _ _ 
2 | P _ P P P P P P 
1 | R N B Q K B N R 
-------------------
  | A B C D E F G H 

Turn of: white
Succesful move
c2c4
8 | R N B Q K B N R 
7 | _ P P P P P P P 
6 | P _ _ _ _ _ _ _ 
5 | _ _ _ _ _ _ _ _ 
4 | _ P P _ _ _ _ _ 
3 | _ _ _ _ _ _ _ _ 
2 | P _ _ P P P P P 
1 | R N B Q K B N R 
-------------------
  | A B C D E F G H 

Turn of: black
Succesful move
e7e6
8 | R N B Q K B N R 
7 | _ P P P _ P P P 
6 | P _ _ _ P _ _ _ 
5 | _ _ _ _ _ _ _ _ 
4 | _ P P _ _ _ _ _ 
3 | _ _ _ _ _ _ _ _ 
2 | P _ _ P P P P P 
1 | R N B Q K B N R 
-------------------
  | A B C D E F G H 

Turn of: white
Succesful move
c4c5
8 | R N B Q K B N R 
7 | _ P P P _ P P P 
6 | P _ _ _ P _ _ _ 
5 | _ _ P _ _ _ _ _ 
4 | _ P _ _ _ _ _ _ 
3 | _ _ _ _ _ _ _ _ 
2 | P _ _ P P P P P 
1 | R N B Q K B N R 
-------------------
  | A B C D E F G H 

Turn of: black
Succesful move
b8c6
8 | R _ B Q K B N R 
7 | _ P P P _ P P P 
6 | P _ N _ P _ _ _ 
5 | _ _ P _ _ _ _ _ 
4 | _ P _ _ _ _ _ _ 
3 | _ _ _ _ _ _ _ _ 
2 | P _ _ P P P P P 
1 | R N B Q K B N R 
-------------------
  | A B C D E F G H 

Turn of: white
Succesful move
g2g3
8 | R _ B Q K B N R 
7 | _ P P P _ P P P 
6 | P _ N _ P _ _ _ 
5 | _ _ P _ _ _ _ _ 
4 | _ P _ _ _ _ _ _ 
3 | _ _ _ _ _ _ P _ 
2 | P _ _ P P P _ P 
1 | R N B Q K B N R 
-------------------
  | A B C D E F G H 

Turn of: black
Succesful move
c6b4
8 | R _ B Q K B N R 
7 | _ P P P _ P P P 
6 | P _ _ _ P _ _ _ 
5 | _ _ P _ _ _ _ _ 
4 | _ N _ _ _ _ _ _ 
3 | _ _ _ _ _ _ P _ 
2 | P _ _ P P P _ P 
1 | R N B Q K B N R 
-------------------
  | A B C D E F G H 

We are playing as White
Move history:
b2b4
a7a6
c2c4
e7e6
c4c5
b8c6
g2g3
c6b4
8 | R _ B Q K B N R 
7 | _ P P P _ P P P 
6 | P _ _ _ P _ _ _ 
5 | _ _ P _ _ _ _ _ 
4 | _ N _ _ _ _ _ _ 
3 | _ _ _ _ _ _ P _ 
2 | P _ _ P P P _ P 
1 | R N B Q K B N R 
-------------------
  | A B C D E F G H 

It is white's turn to play.
AI's move: b1c3
Move written: b1c3
[32;1m[Game] [0mPlayer's error code: 0
[32;1m[Game] [0mChecking move validity...
[32;1m[Board] [0mInitializing board...
[32;1m[Board] [0mLoading history file `championship/lizzie-iii-logic-and-proofs/history.csv`...
[32;1m[Board] [0mLoaded 8 move(s).
[32;1m[Board] [0mLoading move file `championship/lizzie-iii-logic-and-proofs/move.csv`...
[32;1m[Board] [0mWhite player is playing b1 to c3.
[32;1m[Board] [0m
[32;1m[Board] [0m    a b c d e f g h 
[32;1m[Board] [0m  -------------------
[32;1m[Board] [0m8 ||[30;1mr[0m| |[30;1mb[0m|[30;1mQ[0m|[30;1mK[0m|[30;1mb[0m|[30;1mk[0m|[30;1mr[0m|| 8
[32;1m[Board] [0m  -------------------
[32;1m[Board] [0m7 || |[30;1mp[0m|[30;1mp[0m|[30;1mp[0m| |[30;1mp[0m|[30;1mp[0m|[30;1mp[0m|| 7
[32;1m[Board] [0m  -------------------
[32;1m[Board] [0m6 ||[30;1mp[0m| |[7;1m [0m| |[30;1mp[0m| |[7;1m [0m| || 6
[32;1m[Board] [0m  -------------------
[32;1m[Board] [0m5 || |[7;1m [0m|[0;1mp[0m|[7;1m [0m| |[7;1m [0m| |[7;1m [0m|| 5
[32;1m[Board] [0m  -------------------
[32;1m[Board] [0m4 ||[7;1m [0m|[30;1mk[0m|[7;1m [0m| |[7;1m [0m| |[7;1m [0m| || 4
[32;1m[Board] [0m  -------------------
[32;1m[Board] [0m3 || |[7;1m [0m|[0;1mk[0m|[7;1m [0m| |[7;1m [0m|[0;1mp[0m|[7;1m [0m|| 3
[32;1m[Board] [0m  -------------------
[32;1m[Board] [0m2 ||[0;1mp[0m| |[7;1m [0m|[0;1mp[0m|[0;1mp[0m|[0;1mp[0m|[7;1m [0m|[0;1mp[0m|| 2
[32;1m[Board] [0m  -------------------
[32;1m[Board] [0m1 ||[0;1mr[0m|[7;1m [0m|[0;1mb[0m|[0;1mQ[0m|[0;1mK[0m|[0;1mb[0m|[0;1mk[0m|[0;1mr[0m|| 1
[32;1m[Board] [0m  -------------------
[32;1m[Board] [0m    a b c d e f g h
[32;1m[Board] [0m
[32;1m[Referee] [0mThis is the turn of the Black player...
[DEBUG] Input history filename: championship/lizzie-iii-logic-and-proofs/history.csv
[DEBUG] Output move file: championship/lizzie-iii-logic-and-proofs/move.csv
starting search...
searched and found best move in search: 1083013
Total nodes searched: 21430
how i see the board before writing next move: Turn: Black
Enpassant: xx	Castling: WK WQ BK BQ 
   ---- ---- ---- ---- ---- ---- ---- ----
8 | r  |    | b  | q  | k  | b  | n  | r  |
   ---- ---- ---- ---- ---- ---- ---- ----
7 |    | p  | p  | p  |    | p  | p  | p  |
   ---- ---- ---- ---- ---- ---- ---- ----
6 | p  |    |    |    | p  |    |    |    |
   ---- ---- ---- ---- ---- ---- ---- ----
5 |    |    | P  |    |    |    |    |    |
   ---- ---- ---- ---- ---- ---- ---- ----
4 |    | n  |    |    |    |    |    |    |
   ---- ---- ---- ---- ---- ---- ---- ----
3 |    |    | N  |    |    |    | P  |    |
   ---- ---- ---- ---- ---- ---- ---- ----
2 | P  |    |    | P  | P  | P  |    | P  |
   ---- ---- ---- ---- ---- ---- ---- ----
1 | R  |    | B  | Q  | K  | B  | N  | R  |
   ---- ---- ---- ---- ---- ---- ---- ----
    a    b    c    d    e    f    g    h
[DEBUG] [Parser] Wrote to ouput file championship/lizzie-iii-logic-and-proofs/move.csv move : f8c5
[32;1m[Game] [0mPlayer's error code: 0
[32;1m[Game] [0mChecking move validity...
[32;1m[Board] [0mInitializing board...
[32;1m[Board] [0mLoading history file `championship/lizzie-iii-logic-and-proofs/history.csv`...
[32;1m[Board] [0mLoaded 9 move(s).
[32;1m[Board] [0mLoading move file `championship/lizzie-iii-logic-and-proofs/move.csv`...
[32;1m[Board] [0mBlack player is playing f8 to c5.
[32;1m[Board] [0m[5;1mBlack Bishop is taking White Pawn.[0m
[32;1m[Board] [0m
[32;1m[Board] [0m    a b c d e f g h 
[32;1m[Board] [0m  -------------------
[32;1m[Board] [0m8 ||[30;1mr[0m| |[30;1mb[0m|[30;1mQ[0m|[30;1mK[0m| |[30;1mk[0m|[30;1mr[0m|| 8
[32;1m[Board] [0m  -------------------
[32;1m[Board] [0m7 || |[30;1mp[0m|[30;1mp[0m|[30;1mp[0m| |[30;1mp[0m|[30;1mp[0m|[30;1mp[0m|| 7
[32;1m[Board] [0m  -------------------
[32;1m[Board] [0m6 ||[30;1mp[0m| |[7;1m [0m| |[30;1mp[0m| |[7;1m [0m| || 6
[32;1m[Board] [0m  -------------------
[32;1m[Board] [0m5 || |[7;1m [0m|[30;1mb[0m|[7;1m [0m| |[7;1m [0m| |[7;1m [0m|| 5
[32;1m[Board] [0m  -------------------
[32;1m[Board] [0m4 ||[7;1m [0m|[30;1mk[0m|[7;1m [0m| |[7;1m [0m| |[7;1m [0m| || 4
[32;1m[Board] [0m  -------------------
[32;1m[Board] [0m3 || |[7;1m [0m|[0;1mk[0m|[7;1m [0m| |[7;1m [0m|[0;1mp[0m|[7;1m [0m|| 3
[32;1m[Board] [0m  -------------------
[32;1m[Board] [0m2 ||[0;1mp[0m| |[7;1m [0m|[0;1mp[0m|[0;1mp[0m|[0;1mp[0m|[7;1m [0m|[0;1mp[0m|| 2
[32;1m[Board] [0m  -------------------
[32;1m[Board] [0m1 ||[0;1mr[0m|[7;1m [0m|[0;1mb[0m|[0;1mQ[0m|[0;1mK[0m|[0;1mb[0m|[0;1mk[0m|[0;1mr[0m|| 1
[32;1m[Board] [0m  -------------------
[32;1m[Board] [0m    a b c d e f g h
[32;1m[Board] [0m
[32;1m[Referee] [0mThis is the turn of the White player...
Input file: championship/lizzie-iii-logic-and-proofs/history.csv
Output file: championship/lizzie-iii-logic-and-proofs/move.csv
Turn of: white
Succesful move
b2b4
8 | R N B Q K B N R 
7 | P P P P P P P P 
6 | _ _ _ _ _ _ _ _ 
5 | _ _ _ _ _ _ _ _ 
4 | _ P _ _ _ _ _ _ 
3 | _ _ _ _ _ _ _ _ 
2 | P _ P P P P P P 
1 | R N B Q K B N R 
-------------------
  | A B C D E F G H 

Turn of: black
Succesful move
a7a6
8 | R N B Q K B N R 
7 | _ P P P P P P P 
6 | P _ _ _ _ _ _ _ 
5 | _ _ _ _ _ _ _ _ 
4 | _ P _ _ _ _ _ _ 
3 | _ _ _ _ _ _ _ _ 
2 | P _ P P P P P P 
1 | R N B Q K B N R 
-------------------
  | A B C D E F G H 

Turn of: white
Succesful move
c2c4
8 | R N B Q K B N R 
7 | _ P P P P P P P 
6 | P _ _ _ _ _ _ _ 
5 | _ _ _ _ _ _ _ _ 
4 | _ P P _ _ _ _ _ 
3 | _ _ _ _ _ _ _ _ 
2 | P _ _ P P P P P 
1 | R N B Q K B N R 
-------------------
  | A B C D E F G H 

Turn of: black
Succesful move
e7e6
8 | R N B Q K B N R 
7 | _ P P P _ P P P 
6 | P _ _ _ P _ _ _ 
5 | _ _ _ _ _ _ _ _ 
4 | _ P P _ _ _ _ _ 
3 | _ _ _ _ _ _ _ _ 
2 | P _ _ P P P P P 
1 | R N B Q K B N R 
-------------------
  | A B C D E F G H 

Turn of: white
Succesful move
c4c5
8 | R N B Q K B N R 
7 | _ P P P _ P P P 
6 | P _ _ _ P _ _ _ 
5 | _ _ P _ _ _ _ _ 
4 | _ P _ _ _ _ _ _ 
3 | _ _ _ _ _ _ _ _ 
2 | P _ _ P P P P P 
1 | R N B Q K B N R 
-------------------
  | A B C D E F G H 

Turn of: black
Succesful move
b8c6
8 | R _ B Q K B N R 
7 | _ P P P _ P P P 
6 | P _ N _ P _ _ _ 
5 | _ _ P _ _ _ _ _ 
4 | _ P _ _ _ _ _ _ 
3 | _ _ _ _ _ _ _ _ 
2 | P _ _ P P P P P 
1 | R N B Q K B N R 
-------------------
  | A B C D E F G H 

Turn of: white
Succesful move
g2g3
8 | R _ B Q K B N R 
7 | _ P P P _ P P P 
6 | P _ N _ P _ _ _ 
5 | _ _ P _ _ _ _ _ 
4 | _ P _ _ _ _ _ _ 
3 | _ _ _ _ _ _ P _ 
2 | P _ _ P P P _ P 
1 | R N B Q K B N R 
-------------------
  | A B C D E F G H 

Turn of: black
Succesful move
c6b4
8 | R _ B Q K B N R 
7 | _ P P P _ P P P 
6 | P _ _ _ P _ _ _ 
5 | _ _ P _ _ _ _ _ 
4 | _ N _ _ _ _ _ _ 
3 | _ _ _ _ _ _ P _ 
2 | P _ _ P P P _ P 
1 | R N B Q K B N R 
-------------------
  | A B C D E F G H 

Turn of: white
Succesful move
b1c3
8 | R _ B Q K B N R 
7 | _ P P P _ P P P 
6 | P _ _ _ P _ _ _ 
5 | _ _ P _ _ _ _ _ 
4 | _ N _ _ _ _ _ _ 
3 | _ _ N _ _ _ P _ 
2 | P _ _ P P P _ P 
1 | R _ B Q K B N R 
-------------------
  | A B C D E F G H 

Turn of: black
Succesful move
f8c5
8 | R _ B Q K _ N R 
7 | _ P P P _ P P P 
6 | P _ _ _ P _ _ _ 
5 | _ _ B _ _ _ _ _ 
4 | _ N _ _ _ _ _ _ 
3 | _ _ N _ _ _ P _ 
2 | P _ _ P P P _ P 
1 | R _ B Q K B N R 
-------------------
  | A B C D E F G H 

We are playing as White
Move history:
b2b4
a7a6
c2c4
e7e6
c4c5
b8c6
g2g3
c6b4
b1c3
f8c5
8 | R _ B Q K _ N R 
7 | _ P P P _ P P P 
6 | P _ _ _ P _ _ _ 
5 | _ _ B _ _ _ _ _ 
4 | _ N _ _ _ _ _ _ 
3 | _ _ N _ _ _ P _ 
2 | P _ _ P P P _ P 
1 | R _ B Q K B N R 
-------------------
  | A B C D E F G H 

It is white's turn to play.
AI's move: g1h3
Move written: g1h3
[32;1m[Game] [0mPlayer's error code: 0
[32;1m[Game] [0mChecking move validity...
[32;1m[Board] [0mInitializing board...
[32;1m[Board] [0mLoading history file `championship/lizzie-iii-logic-and-proofs/history.csv`...
[32;1m[Board] [0mLoaded 10 move(s).
[32;1m[Board] [0mLoading move file `championship/lizzie-iii-logic-and-proofs/move.csv`...
[32;1m[Board] [0mWhite player is playing g1 to h3.
[32;1m[Board] [0m
[32;1m[Board] [0m    a b c d e f g h 
[32;1m[Board] [0m  -------------------
[32;1m[Board] [0m8 ||[30;1mr[0m| |[30;1mb[0m|[30;1mQ[0m|[30;1mK[0m| |[30;1mk[0m|[30;1mr[0m|| 8
[32;1m[Board] [0m  -------------------
[32;1m[Board] [0m7 || |[30;1mp[0m|[30;1mp[0m|[30;1mp[0m| |[30;1mp[0m|[30;1mp[0m|[30;1mp[0m|| 7
[32;1m[Board] [0m  -------------------
[32;1m[Board] [0m6 ||[30;1mp[0m| |[7;1m [0m| |[30;1mp[0m| |[7;1m [0m| || 6
[32;1m[Board] [0m  -------------------
[32;1m[Board] [0m5 || |[7;1m [0m|[30;1mb[0m|[7;1m [0m| |[7;1m [0m| |[7;1m [0m|| 5
[32;1m[Board] [0m  -------------------
[32;1m[Board] [0m4 ||[7;1m [0m|[30;1mk[0m|[7;1m [0m| |[7;1m [0m| |[7;1m [0m| || 4
[32;1m[Board] [0m  -------------------
[32;1m[Board] [0m3 || |[7;1m [0m|[0;1mk[0m|[7;1m [0m| |[7;1m [0m|[0;1mp[0m|[0;1mk[0m|| 3
[32;1m[Board] [0m  -------------------
[32;1m[Board] [0m2 ||[0;1mp[0m| |[7;1m [0m|[0;1mp[0m|[0;1mp[0m|[0;1mp[0m|[7;1m [0m|[0;1mp[0m|| 2
[32;1m[Board] [0m  -------------------
[32;1m[Board] [0m1 ||[0;1mr[0m|[7;1m [0m|[0;1mb[0m|[0;1mQ[0m|[0;1mK[0m|[0;1mb[0m| |[0;1mr[0m|| 1
[32;1m[Board] [0m  -------------------
[32;1m[Board] [0m    a b c d e f g h
[32;1m[Board] [0m
[32;1m[Referee] [0mThis is the turn of the Black player...
[DEBUG] Input history filename: championship/lizzie-iii-logic-and-proofs/history.csv
[DEBUG] Output move file: championship/lizzie-iii-logic-and-proofs/move.csv
starting search...
searched and found best move in search: 1084762
Total nodes searched: 21823
how i see the board before writing next move: Turn: Black
Enpassant: xx	Castling: WK WQ BK BQ 
   ---- ---- ---- ---- ---- ---- ---- ----
8 | r  |    | b  | q  | k  |    | n  | r  |
   ---- ---- ---- ---- ---- ---- ---- ----
7 |    | p  | p  | p  |    | p  | p  | p  |
   ---- ---- ---- ---- ---- ---- ---- ----
6 | p  |    |    |    | p  |    |    |    |
   ---- ---- ---- ---- ---- ---- ---- ----
5 |    |    | b  |    |    |    |    |    |
   ---- ---- ---- ---- ---- ---- ---- ----
4 |    | n  |    |    |    |    |    |    |
   ---- ---- ---- ---- ---- ---- ---- ----
3 |    |    | N  |    |    |    | P  | N  |
   ---- ---- ---- ---- ---- ---- ---- ----
2 | P  |    |    | P  | P  | P  |    | P  |
   ---- ---- ---- ---- ---- ---- ---- ----
1 | R  |    | B  | Q  | K  | B  |    | R  |
   ---- ---- ---- ---- ---- ---- ---- ----
    a    b    c    d    e    f    g    h
[DEBUG] [Parser] Wrote to ouput file championship/lizzie-iii-logic-and-proofs/move.csv move : c5f2
[32;1m[Game] [0mPlayer's error code: 0
[32;1m[Game] [0mChecking move validity...
[32;1m[Board] [0mInitializing board...
[32;1m[Board] [0mLoading history file `championship/lizzie-iii-logic-and-proofs/history.csv`...
[32;1m[Board] [0mLoaded 11 move(s).
[32;1m[Board] [0mLoading move file `championship/lizzie-iii-logic-and-proofs/move.csv`...
[32;1m[Board] [0mBlack player is playing c5 to f2.
[32;1m[Board] [0m[5;1mBlack Bishop is taking White Pawn.[0m
[32;1m[Board] [0m
[32;1m[Board] [0m    a b c d e f g h 
[32;1m[Board] [0m  -------------------
[32;1m[Board] [0m8 ||[30;1mr[0m| |[30;1mb[0m|[30;1mQ[0m|[30;1mK[0m| |[30;1mk[0m|[30;1mr[0m|| 8
[32;1m[Board] [0m  -------------------
[32;1m[Board] [0m7 || |[30;1mp[0m|[30;1mp[0m|[30;1mp[0m| |[30;1mp[0m|[30;1mp[0m|[30;1mp[0m|| 7
[32;1m[Board] [0m  -------------------
[32;1m[Board] [0m6 ||[30;1mp[0m| |[7;1m [0m| |[30;1mp[0m| |[7;1m [0m| || 6
[32;1m[Board] [0m  -------------------
[32;1m[Board] [0m5 || |[7;1m [0m| |[7;1m [0m| |[7;1m [0m| |[7;1m [0m|| 5
[32;1m[Board] [0m  -------------------
[32;1m[Board] [0m4 ||[7;1m [0m|[30;1mk[0m|[7;1m [0m| |[7;1m [0m| |[7;1m [0m| || 4
[32;1m[Board] [0m  -------------------
[32;1m[Board] [0m3 || |[7;1m [0m|[0;1mk[0m|[7;1m [0m| |[7;1m [0m|[0;1mp[0m|[0;1mk[0m|| 3
[32;1m[Board] [0m  -------------------
[32;1m[Board] [0m2 ||[0;1mp[0m| |[7;1m [0m|[0;1mp[0m|[0;1mp[0m|[30;1mb[0m|[7;1m [0m|[0;1mp[0m|| 2
[32;1m[Board] [0m  -------------------
[32;1m[Board] [0m1 ||[0;1mr[0m|[7;1m [0m|[0;1mb[0m|[0;1mQ[0m|[0;1mK[0m|[0;1mb[0m| |[0;1mr[0m|| 1
[32;1m[Board] [0m  -------------------
[32;1m[Board] [0m    a b c d e f g h
[32;1m[Board] [0m
[32;1m[Referee] [0mThis is the turn of the White player...
[32;1m[Board] [0m[33;1m[WARNING][0m [5;1mWhite King in check![0m
[32;1m[Board] [0m[33;1m[WARNING][0m    Threatened by Black Bishop (f2)
Input file: championship/lizzie-iii-logic-and-proofs/history.csv
Output file: championship/lizzie-iii-logic-and-proofs/move.csv
Turn of: white
Succesful move
b2b4
8 | R N B Q K B N R 
7 | P P P P P P P P 
6 | _ _ _ _ _ _ _ _ 
5 | _ _ _ _ _ _ _ _ 
4 | _ P _ _ _ _ _ _ 
3 | _ _ _ _ _ _ _ _ 
2 | P _ P P P P P P 
1 | R N B Q K B N R 
-------------------
  | A B C D E F G H 

Turn of: black
Succesful move
a7a6
8 | R N B Q K B N R 
7 | _ P P P P P P P 
6 | P _ _ _ _ _ _ _ 
5 | _ _ _ _ _ _ _ _ 
4 | _ P _ _ _ _ _ _ 
3 | _ _ _ _ _ _ _ _ 
2 | P _ P P P P P P 
1 | R N B Q K B N R 
-------------------
  | A B C D E F G H 

Turn of: white
Succesful move
c2c4
8 | R N B Q K B N R 
7 | _ P P P P P P P 
6 | P _ _ _ _ _ _ _ 
5 | _ _ _ _ _ _ _ _ 
4 | _ P P _ _ _ _ _ 
3 | _ _ _ _ _ _ _ _ 
2 | P _ _ P P P P P 
1 | R N B Q K B N R 
-------------------
  | A B C D E F G H 

Turn of: black
Succesful move
e7e6
8 | R N B Q K B N R 
7 | _ P P P _ P P P 
6 | P _ _ _ P _ _ _ 
5 | _ _ _ _ _ _ _ _ 
4 | _ P P _ _ _ _ _ 
3 | _ _ _ _ _ _ _ _ 
2 | P _ _ P P P P P 
1 | R N B Q K B N R 
-------------------
  | A B C D E F G H 

Turn of: white
Succesful move
c4c5
8 | R N B Q K B N R 
7 | _ P P P _ P P P 
6 | P _ _ _ P _ _ _ 
5 | _ _ P _ _ _ _ _ 
4 | _ P _ _ _ _ _ _ 
3 | _ _ _ _ _ _ _ _ 
2 | P _ _ P P P P P 
1 | R N B Q K B N R 
-------------------
  | A B C D E F G H 

Turn of: black
Succesful move
b8c6
8 | R _ B Q K B N R 
7 | _ P P P _ P P P 
6 | P _ N _ P _ _ _ 
5 | _ _ P _ _ _ _ _ 
4 | _ P _ _ _ _ _ _ 
3 | _ _ _ _ _ _ _ _ 
2 | P _ _ P P P P P 
1 | R N B Q K B N R 
-------------------
  | A B C D E F G H 

Turn of: white
Succesful move
g2g3
8 | R _ B Q K B N R 
7 | _ P P P _ P P P 
6 | P _ N _ P _ _ _ 
5 | _ _ P _ _ _ _ _ 
4 | _ P _ _ _ _ _ _ 
3 | _ _ _ _ _ _ P _ 
2 | P _ _ P P P _ P 
1 | R N B Q K B N R 
-------------------
  | A B C D E F G H 

Turn of: black
Succesful move
c6b4
8 | R _ B Q K B N R 
7 | _ P P P _ P P P 
6 | P _ _ _ P _ _ _ 
5 | _ _ P _ _ _ _ _ 
4 | _ N _ _ _ _ _ _ 
3 | _ _ _ _ _ _ P _ 
2 | P _ _ P P P _ P 
1 | R N B Q K B N R 
-------------------
  | A B C D E F G H 

Turn of: white
Succesful move
b1c3
8 | R _ B Q K B N R 
7 | _ P P P _ P P P 
6 | P _ _ _ P _ _ _ 
5 | _ _ P _ _ _ _ _ 
4 | _ N _ _ _ _ _ _ 
3 | _ _ N _ _ _ P _ 
2 | P _ _ P P P _ P 
1 | R _ B Q K B N R 
-------------------
  | A B C D E F G H 

Turn of: black
Succesful move
f8c5
8 | R _ B Q K _ N R 
7 | _ P P P _ P P P 
6 | P _ _ _ P _ _ _ 
5 | _ _ B _ _ _ _ _ 
4 | _ N _ _ _ _ _ _ 
3 | _ _ N _ _ _ P _ 
2 | P _ _ P P P _ P 
1 | R _ B Q K B N R 
-------------------
  | A B C D E F G H 

Turn of: white
Succesful move
g1h3
8 | R _ B Q K _ N R 
7 | _ P P P _ P P P 
6 | P _ _ _ P _ _ _ 
5 | _ _ B _ _ _ _ _ 
4 | _ N _ _ _ _ _ _ 
3 | _ _ N _ _ _ P N 
2 | P _ _ P P P _ P 
1 | R _ B Q K B _ R 
-------------------
  | A B C D E F G H 

Turn of: black
Succesful move
c5f2
8 | R _ B Q K _ N R 
7 | _ P P P _ P P P 
6 | P _ _ _ P _ _ _ 
5 | _ _ _ _ _ _ _ _ 
4 | _ N _ _ _ _ _ _ 
3 | _ _ N _ _ _ P N 
2 | P _ _ P P B _ P 
1 | R _ B Q K B _ R 
-------------------
  | A B C D E F G H 

We are playing as White
Move history:
b2b4
a7a6
c2c4
e7e6
c4c5
b8c6
g2g3
c6b4
b1c3
f8c5
g1h3
c5f2
8 | R _ B Q K _ N R 
7 | _ P P P _ P P P 
6 | P _ _ _ P _ _ _ 
5 | _ _ _ _ _ _ _ _ 
4 | _ N _ _ _ _ _ _ 
3 | _ _ N _ _ _ P N 
2 | P _ _ P P B _ P 
1 | R _ B Q K B _ R 
-------------------
  | A B C D E F G H 

It is white's turn to play.
AI's move: h3f2
Move written: h3f2
[32;1m[Game] [0mPlayer's error code: 0
[32;1m[Game] [0mChecking move validity...
[32;1m[Board] [0mInitializing board...
[32;1m[Board] [0mLoading history file `championship/lizzie-iii-logic-and-proofs/history.csv`...
[32;1m[Board] [0mLoaded 12 move(s).
[32;1m[Board] [0mLoading move file `championship/lizzie-iii-logic-and-proofs/move.csv`...
[32;1m[Board] [0mWhite player is playing h3 to f2.
[32;1m[Board] [0m[5;1mWhite Knight is taking Black Bishop.[0m
[32;1m[Board] [0m
[32;1m[Board] [0m    a b c d e f g h 
[32;1m[Board] [0m  -------------------
[32;1m[Board] [0m8 ||[30;1mr[0m| |[30;1mb[0m|[30;1mQ[0m|[30;1mK[0m| |[30;1mk[0m|[30;1mr[0m|| 8
[32;1m[Board] [0m  -------------------
[32;1m[Board] [0m7 || |[30;1mp[0m|[30;1mp[0m|[30;1mp[0m| |[30;1mp[0m|[30;1mp[0m|[30;1mp[0m|| 7
[32;1m[Board] [0m  -------------------
[32;1m[Board] [0m6 ||[30;1mp[0m| |[7;1m [0m| |[30;1mp[0m| |[7;1m [0m| || 6
[32;1m[Board] [0m  -------------------
[32;1m[Board] [0m5 || |[7;1m [0m| |[7;1m [0m| |[7;1m [0m| |[7;1m [0m|| 5
[32;1m[Board] [0m  -------------------
[32;1m[Board] [0m4 ||[7;1m [0m|[30;1mk[0m|[7;1m [0m| |[7;1m [0m| |[7;1m [0m| || 4
[32;1m[Board] [0m  -------------------
[32;1m[Board] [0m3 || |[7;1m [0m|[0;1mk[0m|[7;1m [0m| |[7;1m [0m|[0;1mp[0m|[7;1m [0m|| 3
[32;1m[Board] [0m  -------------------
[32;1m[Board] [0m2 ||[0;1mp[0m| |[7;1m [0m|[0;1mp[0m|[0;1mp[0m|[0;1mk[0m|[7;1m [0m|[0;1mp[0m|| 2
[32;1m[Board] [0m  -------------------
[32;1m[Board] [0m1 ||[0;1mr[0m|[7;1m [0m|[0;1mb[0m|[0;1mQ[0m|[0;1mK[0m|[0;1mb[0m| |[0;1mr[0m|| 1
[32;1m[Board] [0m  -------------------
[32;1m[Board] [0m    a b c d e f g h
[32;1m[Board] [0m
[32;1m[Referee] [0mThis is the turn of the Black player...
[DEBUG] Input history filename: championship/lizzie-iii-logic-and-proofs/history.csv
[DEBUG] Output move file: championship/lizzie-iii-logic-and-proofs/move.csv
starting search...
searched and found best move in search: 42307
Total nodes searched: 26466
how i see the board before writing next move: Turn: Black
Enpassant: xx	Castling: WK WQ BK BQ 
   ---- ---- ---- ---- ---- ---- ---- ----
8 | r  |    | b  | q  | k  |    | n  | r  |
   ---- ---- ---- ---- ---- ---- ---- ----
7 |    | p  | p  | p  |    | p  | p  | p  |
   ---- ---- ---- ---- ---- ---- ---- ----
6 | p  |    |    |    | p  |    |    |    |
   ---- ---- ---- ---- ---- ---- ---- ----
5 |    |    |    |    |    |    |    |    |
   ---- ---- ---- ---- ---- ---- ---- ----
4 |    | n  |    |    |    |    |    |    |
   ---- ---- ---- ---- ---- ---- ---- ----
3 |    |    | N  |    |    |    | P  |    |
   ---- ---- ---- ---- ---- ---- ---- ----
2 | P  |    |    | P  | P  | N  |    | P  |
   ---- ---- ---- ---- ---- ---- ---- ----
1 | R  |    | B  | Q  | K  | B  |    | R  |
   ---- ---- ---- ---- ---- ---- ---- ----
    a    b    c    d    e    f    g    h
[DEBUG] [Parser] Wrote to ouput file championship/lizzie-iii-logic-and-proofs/move.csv move : d8f6
[32;1m[Game] [0mPlayer's error code: 0
[32;1m[Game] [0mChecking move validity...
[32;1m[Board] [0mInitializing board...
[32;1m[Board] [0mLoading history file `championship/lizzie-iii-logic-and-proofs/history.csv`...
[32;1m[Board] [0mLoaded 13 move(s).
[32;1m[Board] [0mLoading move file `championship/lizzie-iii-logic-and-proofs/move.csv`...
[32;1m[Board] [0mBlack player is playing d8 to f6.
[32;1m[Board] [0m
[32;1m[Board] [0m    a b c d e f g h 
[32;1m[Board] [0m  -------------------
[32;1m[Board] [0m8 ||[30;1mr[0m| |[30;1mb[0m| |[30;1mK[0m| |[30;1mk[0m|[30;1mr[0m|| 8
[32;1m[Board] [0m  -------------------
[32;1m[Board] [0m7 || |[30;1mp[0m|[30;1mp[0m|[30;1mp[0m| |[30;1mp[0m|[30;1mp[0m|[30;1mp[0m|| 7
[32;1m[Board] [0m  -------------------
[32;1m[Board] [0m6 ||[30;1mp[0m| |[7;1m [0m| |[30;1mp[0m|[30;1mQ[0m|[7;1m [0m| || 6
[32;1m[Board] [0m  -------------------
[32;1m[Board] [0m5 || |[7;1m [0m| |[7;1m [0m| |[7;1m [0m| |[7;1m [0m|| 5
[32;1m[Board] [0m  -------------------
[32;1m[Board] [0m4 ||[7;1m [0m|[30;1mk[0m|[7;1m [0m| |[7;1m [0m| |[7;1m [0m| || 4
[32;1m[Board] [0m  -------------------
[32;1m[Board] [0m3 || |[7;1m [0m|[0;1mk[0m|[7;1m [0m| |[7;1m [0m|[0;1mp[0m|[7;1m [0m|| 3
[32;1m[Board] [0m  -------------------
[32;1m[Board] [0m2 ||[0;1mp[0m| |[7;1m [0m|[0;1mp[0m|[0;1mp[0m|[0;1mk[0m|[7;1m [0m|[0;1mp[0m|| 2
[32;1m[Board] [0m  -------------------
[32;1m[Board] [0m1 ||[0;1mr[0m|[7;1m [0m|[0;1mb[0m|[0;1mQ[0m|[0;1mK[0m|[0;1mb[0m| |[0;1mr[0m|| 1
[32;1m[Board] [0m  -------------------
[32;1m[Board] [0m    a b c d e f g h
[32;1m[Board] [0m
[32;1m[Referee] [0mThis is the turn of the White player...
Input file: championship/lizzie-iii-logic-and-proofs/history.csv
Output file: championship/lizzie-iii-logic-and-proofs/move.csv
Turn of: white
Succesful move
b2b4
8 | R N B Q K B N R 
7 | P P P P P P P P 
6 | _ _ _ _ _ _ _ _ 
5 | _ _ _ _ _ _ _ _ 
4 | _ P _ _ _ _ _ _ 
3 | _ _ _ _ _ _ _ _ 
2 | P _ P P P P P P 
1 | R N B Q K B N R 
-------------------
  | A B C D E F G H 

Turn of: black
Succesful move
a7a6
8 | R N B Q K B N R 
7 | _ P P P P P P P 
6 | P _ _ _ _ _ _ _ 
5 | _ _ _ _ _ _ _ _ 
4 | _ P _ _ _ _ _ _ 
3 | _ _ _ _ _ _ _ _ 
2 | P _ P P P P P P 
1 | R N B Q K B N R 
-------------------
  | A B C D E F G H 

Turn of: white
Succesful move
c2c4
8 | R N B Q K B N R 
7 | _ P P P P P P P 
6 | P _ _ _ _ _ _ _ 
5 | _ _ _ _ _ _ _ _ 
4 | _ P P _ _ _ _ _ 
3 | _ _ _ _ _ _ _ _ 
2 | P _ _ P P P P P 
1 | R N B Q K B N R 
-------------------
  | A B C D E F G H 

Turn of: black
Succesful move
e7e6
8 | R N B Q K B N R 
7 | _ P P P _ P P P 
6 | P _ _ _ P _ _ _ 
5 | _ _ _ _ _ _ _ _ 
4 | _ P P _ _ _ _ _ 
3 | _ _ _ _ _ _ _ _ 
2 | P _ _ P P P P P 
1 | R N B Q K B N R 
-------------------
  | A B C D E F G H 

Turn of: white
Succesful move
c4c5
8 | R N B Q K B N R 
7 | _ P P P _ P P P 
6 | P _ _ _ P _ _ _ 
5 | _ _ P _ _ _ _ _ 
4 | _ P _ _ _ _ _ _ 
3 | _ _ _ _ _ _ _ _ 
2 | P _ _ P P P P P 
1 | R N B Q K B N R 
-------------------
  | A B C D E F G H 

Turn of: black
Succesful move
b8c6
8 | R _ B Q K B N R 
7 | _ P P P _ P P P 
6 | P _ N _ P _ _ _ 
5 | _ _ P _ _ _ _ _ 
4 | _ P _ _ _ _ _ _ 
3 | _ _ _ _ _ _ _ _ 
2 | P _ _ P P P P P 
1 | R N B Q K B N R 
-------------------
  | A B C D E F G H 

Turn of: white
Succesful move
g2g3
8 | R _ B Q K B N R 
7 | _ P P P _ P P P 
6 | P _ N _ P _ _ _ 
5 | _ _ P _ _ _ _ _ 
4 | _ P _ _ _ _ _ _ 
3 | _ _ _ _ _ _ P _ 
2 | P _ _ P P P _ P 
1 | R N B Q K B N R 
-------------------
  | A B C D E F G H 

Turn of: black
Succesful move
c6b4
8 | R _ B Q K B N R 
7 | _ P P P _ P P P 
6 | P _ _ _ P _ _ _ 
5 | _ _ P _ _ _ _ _ 
4 | _ N _ _ _ _ _ _ 
3 | _ _ _ _ _ _ P _ 
2 | P _ _ P P P _ P 
1 | R N B Q K B N R 
-------------------
  | A B C D E F G H 

Turn of: white
Succesful move
b1c3
8 | R _ B Q K B N R 
7 | _ P P P _ P P P 
6 | P _ _ _ P _ _ _ 
5 | _ _ P _ _ _ _ _ 
4 | _ N _ _ _ _ _ _ 
3 | _ _ N _ _ _ P _ 
2 | P _ _ P P P _ P 
1 | R _ B Q K B N R 
-------------------
  | A B C D E F G H 

Turn of: black
Succesful move
f8c5
8 | R _ B Q K _ N R 
7 | _ P P P _ P P P 
6 | P _ _ _ P _ _ _ 
5 | _ _ B _ _ _ _ _ 
4 | _ N _ _ _ _ _ _ 
3 | _ _ N _ _ _ P _ 
2 | P _ _ P P P _ P 
1 | R _ B Q K B N R 
-------------------
  | A B C D E F G H 

Turn of: white
Succesful move
g1h3
8 | R _ B Q K _ N R 
7 | _ P P P _ P P P 
6 | P _ _ _ P _ _ _ 
5 | _ _ B _ _ _ _ _ 
4 | _ N _ _ _ _ _ _ 
3 | _ _ N _ _ _ P N 
2 | P _ _ P P P _ P 
1 | R _ B Q K B _ R 
-------------------
  | A B C D E F G H 

Turn of: black
Succesful move
c5f2
8 | R _ B Q K _ N R 
7 | _ P P P _ P P P 
6 | P _ _ _ P _ _ _ 
5 | _ _ _ _ _ _ _ _ 
4 | _ N _ _ _ _ _ _ 
3 | _ _ N _ _ _ P N 
2 | P _ _ P P B _ P 
1 | R _ B Q K B _ R 
-------------------
  | A B C D E F G H 

Turn of: white
Succesful move
h3f2
8 | R _ B Q K _ N R 
7 | _ P P P _ P P P 
6 | P _ _ _ P _ _ _ 
5 | _ _ _ _ _ _ _ _ 
4 | _ N _ _ _ _ _ _ 
3 | _ _ N _ _ _ P _ 
2 | P _ _ P P N _ P 
1 | R _ B Q K B _ R 
-------------------
  | A B C D E F G H 

Turn of: black
Succesful move
d8f6
8 | R _ B _ K _ N R 
7 | _ P P P _ P P P 
6 | P _ _ _ P Q _ _ 
5 | _ _ _ _ _ _ _ _ 
4 | _ N _ _ _ _ _ _ 
3 | _ _ N _ _ _ P _ 
2 | P _ _ P P N _ P 
1 | R _ B Q K B _ R 
-------------------
  | A B C D E F G H 

We are playing as White
Move history:
b2b4
a7a6
c2c4
e7e6
c4c5
b8c6
g2g3
c6b4
b1c3
f8c5
g1h3
c5f2
h3f2
d8f6
8 | R _ B _ K _ N R 
7 | _ P P P _ P P P 
6 | P _ _ _ P Q _ _ 
5 | _ _ _ _ _ _ _ _ 
4 | _ N _ _ _ _ _ _ 
3 | _ _ N _ _ _ P _ 
2 | P _ _ P P N _ P 
1 | R _ B Q K B _ R 
-------------------
  | A B C D E F G H 

It is white's turn to play.
AI's move: h2h4
Move written: h2h4
[32;1m[Game] [0mPlayer's error code: 0
[32;1m[Game] [0mChecking move validity...
[32;1m[Board] [0mInitializing board...
[32;1m[Board] [0mLoading history file `championship/lizzie-iii-logic-and-proofs/history.csv`...
[32;1m[Board] [0mLoaded 14 move(s).
[32;1m[Board] [0mLoading move file `championship/lizzie-iii-logic-and-proofs/move.csv`...
[32;1m[Board] [0mWhite player is playing h2 to h4.
[32;1m[Board] [0m
[32;1m[Board] [0m    a b c d e f g h 
[32;1m[Board] [0m  -------------------
[32;1m[Board] [0m8 ||[30;1mr[0m| |[30;1mb[0m| |[30;1mK[0m| |[30;1mk[0m|[30;1mr[0m|| 8
[32;1m[Board] [0m  -------------------
[32;1m[Board] [0m7 || |[30;1mp[0m|[30;1mp[0m|[30;1mp[0m| |[30;1mp[0m|[30;1mp[0m|[30;1mp[0m|| 7
[32;1m[Board] [0m  -------------------
[32;1m[Board] [0m6 ||[30;1mp[0m| |[7;1m [0m| |[30;1mp[0m|[30;1mQ[0m|[7;1m [0m| || 6
[32;1m[Board] [0m  -------------------
[32;1m[Board] [0m5 || |[7;1m [0m| |[7;1m [0m| |[7;1m [0m| |[7;1m [0m|| 5
[32;1m[Board] [0m  -------------------
[32;1m[Board] [0m4 ||[7;1m [0m|[30;1mk[0m|[7;1m [0m| |[7;1m [0m| |[7;1m [0m|[0;1mp[0m|| 4
[32;1m[Board] [0m  -------------------
[32;1m[Board] [0m3 || |[7;1m [0m|[0;1mk[0m|[7;1m [0m| |[7;1m [0m|[0;1mp[0m|[7;1m [0m|| 3
[32;1m[Board] [0m  -------------------
[32;1m[Board] [0m2 ||[0;1mp[0m| |[7;1m [0m|[0;1mp[0m|[0;1mp[0m|[0;1mk[0m|[7;1m [0m| || 2
[32;1m[Board] [0m  -------------------
[32;1m[Board] [0m1 ||[0;1mr[0m|[7;1m [0m|[0;1mb[0m|[0;1mQ[0m|[0;1mK[0m|[0;1mb[0m| |[0;1mr[0m|| 1
[32;1m[Board] [0m  -------------------
[32;1m[Board] [0m    a b c d e f g h
[32;1m[Board] [0m
[32;1m[Referee] [0mThis is the turn of the Black player...
[DEBUG] Input history filename: championship/lizzie-iii-logic-and-proofs/history.csv
[DEBUG] Output move file: championship/lizzie-iii-logic-and-proofs/move.csv
starting search...
searched and found best move in search: 25673
Total nodes searched: 32294
how i see the board before writing next move: Turn: Black
Enpassant: h3	Castling: WK WQ BK BQ 
   ---- ---- ---- ---- ---- ---- ---- ----
8 | r  |    | b  |    | k  |    | n  | r  |
   ---- ---- ---- ---- ---- ---- ---- ----
7 |    | p  | p  | p  |    | p  | p  | p  |
   ---- ---- ---- ---- ---- ---- ---- ----
6 | p  |    |    |    | p  | q  |    |    |
   ---- ---- ---- ---- ---- ---- ---- ----
5 |    |    |    |    |    |    |    |    |
   ---- ---- ---- ---- ---- ---- ---- ----
4 |    | n  |    |    |    |    |    | P  |
   ---- ---- ---- ---- ---- ---- ---- ----
3 |    |    | N  |    |    |    | P  |    |
   ---- ---- ---- ---- ---- ---- ---- ----
2 | P  |    |    | P  | P  | N  |    |    |
   ---- ---- ---- ---- ---- ---- ---- ----
1 | R  |    | B  | Q  | K  | B  |    | R  |
   ---- ---- ---- ---- ---- ---- ---- ----
    a    b    c    d    e    f    g    h
[DEBUG] [Parser] Wrote to ouput file championship/lizzie-iii-logic-and-proofs/move.csv move : b7b6
[32;1m[Game] [0mPlayer's error code: 0
[32;1m[Game] [0mChecking move validity...
[32;1m[Board] [0mInitializing board...
[32;1m[Board] [0mLoading history file `championship/lizzie-iii-logic-and-proofs/history.csv`...
[32;1m[Board] [0mLoaded 15 move(s).
[32;1m[Board] [0mLoading move file `championship/lizzie-iii-logic-and-proofs/move.csv`...
[32;1m[Board] [0mBlack player is playing b7 to b6.
[32;1m[Board] [0m
[32;1m[Board] [0m    a b c d e f g h 
[32;1m[Board] [0m  -------------------
[32;1m[Board] [0m8 ||[30;1mr[0m| |[30;1mb[0m| |[30;1mK[0m| |[30;1mk[0m|[30;1mr[0m|| 8
[32;1m[Board] [0m  -------------------
[32;1m[Board] [0m7 || |[7;1m [0m|[30;1mp[0m|[30;1mp[0m| |[30;1mp[0m|[30;1mp[0m|[30;1mp[0m|| 7
[32;1m[Board] [0m  -------------------
[32;1m[Board] [0m6 ||[30;1mp[0m|[30;1mp[0m|[7;1m [0m| |[30;1mp[0m|[30;1mQ[0m|[7;1m [0m| || 6
[32;1m[Board] [0m  -------------------
[32;1m[Board] [0m5 || |[7;1m [0m| |[7;1m [0m| |[7;1m [0m| |[7;1m [0m|| 5
[32;1m[Board] [0m  -------------------
[32;1m[Board] [0m4 ||[7;1m [0m|[30;1mk[0m|[7;1m [0m| |[7;1m [0m| |[7;1m [0m|[0;1mp[0m|| 4
[32;1m[Board] [0m  -------------------
[32;1m[Board] [0m3 || |[7;1m [0m|[0;1mk[0m|[7;1m [0m| |[7;1m [0m|[0;1mp[0m|[7;1m [0m|| 3
[32;1m[Board] [0m  -------------------
[32;1m[Board] [0m2 ||[0;1mp[0m| |[7;1m [0m|[0;1mp[0m|[0;1mp[0m|[0;1mk[0m|[7;1m [0m| || 2
[32;1m[Board] [0m  -------------------
[32;1m[Board] [0m1 ||[0;1mr[0m|[7;1m [0m|[0;1mb[0m|[0;1mQ[0m|[0;1mK[0m|[0;1mb[0m| |[0;1mr[0m|| 1
[32;1m[Board] [0m  -------------------
[32;1m[Board] [0m    a b c d e f g h
[32;1m[Board] [0m
[32;1m[Referee] [0mThis is the turn of the White player...
Input file: championship/lizzie-iii-logic-and-proofs/history.csv
Output file: championship/lizzie-iii-logic-and-proofs/move.csv
Turn of: white
Succesful move
b2b4
8 | R N B Q K B N R 
7 | P P P P P P P P 
6 | _ _ _ _ _ _ _ _ 
5 | _ _ _ _ _ _ _ _ 
4 | _ P _ _ _ _ _ _ 
3 | _ _ _ _ _ _ _ _ 
2 | P _ P P P P P P 
1 | R N B Q K B N R 
-------------------
  | A B C D E F G H 

Turn of: black
Succesful move
a7a6
8 | R N B Q K B N R 
7 | _ P P P P P P P 
6 | P _ _ _ _ _ _ _ 
5 | _ _ _ _ _ _ _ _ 
4 | _ P _ _ _ _ _ _ 
3 | _ _ _ _ _ _ _ _ 
2 | P _ P P P P P P 
1 | R N B Q K B N R 
-------------------
  | A B C D E F G H 

Turn of: white
Succesful move
c2c4
8 | R N B Q K B N R 
7 | _ P P P P P P P 
6 | P _ _ _ _ _ _ _ 
5 | _ _ _ _ _ _ _ _ 
4 | _ P P _ _ _ _ _ 
3 | _ _ _ _ _ _ _ _ 
2 | P _ _ P P P P P 
1 | R N B Q K B N R 
-------------------
  | A B C D E F G H 

Turn of: black
Succesful move
e7e6
8 | R N B Q K B N R 
7 | _ P P P _ P P P 
6 | P _ _ _ P _ _ _ 
5 | _ _ _ _ _ _ _ _ 
4 | _ P P _ _ _ _ _ 
3 | _ _ _ _ _ _ _ _ 
2 | P _ _ P P P P P 
1 | R N B Q K B N R 
-------------------
  | A B C D E F G H 

Turn of: white
Succesful move
c4c5
8 | R N B Q K B N R 
7 | _ P P P _ P P P 
6 | P _ _ _ P _ _ _ 
5 | _ _ P _ _ _ _ _ 
4 | _ P _ _ _ _ _ _ 
3 | _ _ _ _ _ _ _ _ 
2 | P _ _ P P P P P 
1 | R N B Q K B N R 
-------------------
  | A B C D E F G H 

Turn of: black
Succesful move
b8c6
8 | R _ B Q K B N R 
7 | _ P P P _ P P P 
6 | P _ N _ P _ _ _ 
5 | _ _ P _ _ _ _ _ 
4 | _ P _ _ _ _ _ _ 
3 | _ _ _ _ _ _ _ _ 
2 | P _ _ P P P P P 
1 | R N B Q K B N R 
-------------------
  | A B C D E F G H 

Turn of: white
Succesful move
g2g3
8 | R _ B Q K B N R 
7 | _ P P P _ P P P 
6 | P _ N _ P _ _ _ 
5 | _ _ P _ _ _ _ _ 
4 | _ P _ _ _ _ _ _ 
3 | _ _ _ _ _ _ P _ 
2 | P _ _ P P P _ P 
1 | R N B Q K B N R 
-------------------
  | A B C D E F G H 

Turn of: black
Succesful move
c6b4
8 | R _ B Q K B N R 
7 | _ P P P _ P P P 
6 | P _ _ _ P _ _ _ 
5 | _ _ P _ _ _ _ _ 
4 | _ N _ _ _ _ _ _ 
3 | _ _ _ _ _ _ P _ 
2 | P _ _ P P P _ P 
1 | R N B Q K B N R 
-------------------
  | A B C D E F G H 

Turn of: white
Succesful move
b1c3
8 | R _ B Q K B N R 
7 | _ P P P _ P P P 
6 | P _ _ _ P _ _ _ 
5 | _ _ P _ _ _ _ _ 
4 | _ N _ _ _ _ _ _ 
3 | _ _ N _ _ _ P _ 
2 | P _ _ P P P _ P 
1 | R _ B Q K B N R 
-------------------
  | A B C D E F G H 

Turn of: black
Succesful move
f8c5
8 | R _ B Q K _ N R 
7 | _ P P P _ P P P 
6 | P _ _ _ P _ _ _ 
5 | _ _ B _ _ _ _ _ 
4 | _ N _ _ _ _ _ _ 
3 | _ _ N _ _ _ P _ 
2 | P _ _ P P P _ P 
1 | R _ B Q K B N R 
-------------------
  | A B C D E F G H 

Turn of: white
Succesful move
g1h3
8 | R _ B Q K _ N R 
7 | _ P P P _ P P P 
6 | P _ _ _ P _ _ _ 
5 | _ _ B _ _ _ _ _ 
4 | _ N _ _ _ _ _ _ 
3 | _ _ N _ _ _ P N 
2 | P _ _ P P P _ P 
1 | R _ B Q K B _ R 
-------------------
  | A B C D E F G H 

Turn of: black
Succesful move
c5f2
8 | R _ B Q K _ N R 
7 | _ P P P _ P P P 
6 | P _ _ _ P _ _ _ 
5 | _ _ _ _ _ _ _ _ 
4 | _ N _ _ _ _ _ _ 
3 | _ _ N _ _ _ P N 
2 | P _ _ P P B _ P 
1 | R _ B Q K B _ R 
-------------------
  | A B C D E F G H 

Turn of: white
Succesful move
h3f2
8 | R _ B Q K _ N R 
7 | _ P P P _ P P P 
6 | P _ _ _ P _ _ _ 
5 | _ _ _ _ _ _ _ _ 
4 | _ N _ _ _ _ _ _ 
3 | _ _ N _ _ _ P _ 
2 | P _ _ P P N _ P 
1 | R _ B Q K B _ R 
-------------------
  | A B C D E F G H 

Turn of: black
Succesful move
d8f6
8 | R _ B _ K _ N R 
7 | _ P P P _ P P P 
6 | P _ _ _ P Q _ _ 
5 | _ _ _ _ _ _ _ _ 
4 | _ N _ _ _ _ _ _ 
3 | _ _ N _ _ _ P _ 
2 | P _ _ P P N _ P 
1 | R _ B Q K B _ R 
-------------------
  | A B C D E F G H 

Turn of: white
Succesful move
h2h4
8 | R _ B _ K _ N R 
7 | _ P P P _ P P P 
6 | P _ _ _ P Q _ _ 
5 | _ _ _ _ _ _ _ _ 
4 | _ N _ _ _ _ _ P 
3 | _ _ N _ _ _ P _ 
2 | P _ _ P P N _ _ 
1 | R _ B Q K B _ R 
-------------------
  | A B C D E F G H 

Turn of: black
Succesful move
b7b6
8 | R _ B _ K _ N R 
7 | _ _ P P _ P P P 
6 | P P _ _ P Q _ _ 
5 | _ _ _ _ _ _ _ _ 
4 | _ N _ _ _ _ _ P 
3 | _ _ N _ _ _ P _ 
2 | P _ _ P P N _ _ 
1 | R _ B Q K B _ R 
-------------------
  | A B C D E F G H 

We are playing as White
Move history:
b2b4
a7a6
c2c4
e7e6
c4c5
b8c6
g2g3
c6b4
b1c3
f8c5
g1h3
c5f2
h3f2
d8f6
h2h4
b7b6
8 | R _ B _ K _ N R 
7 | _ _ P P _ P P P 
6 | P P _ _ P Q _ _ 
5 | _ _ _ _ _ _ _ _ 
4 | _ N _ _ _ _ _ P 
3 | _ _ N _ _ _ P _ 
2 | P _ _ P P N _ _ 
1 | R _ B Q K B _ R 
-------------------
  | A B C D E F G H 

It is white's turn to play.
AI's move: f1h3
Move written: f1h3
[32;1m[Game] [0mPlayer's error code: 0
[32;1m[Game] [0mChecking move validity...
[32;1m[Board] [0mInitializing board...
[32;1m[Board] [0mLoading history file `championship/lizzie-iii-logic-and-proofs/history.csv`...
[32;1m[Board] [0mLoaded 16 move(s).
[32;1m[Board] [0mLoading move file `championship/lizzie-iii-logic-and-proofs/move.csv`...
[32;1m[Board] [0mWhite player is playing f1 to h3.
[32;1m[Board] [0m
[32;1m[Board] [0m    a b c d e f g h 
[32;1m[Board] [0m  -------------------
[32;1m[Board] [0m8 ||[30;1mr[0m| |[30;1mb[0m| |[30;1mK[0m| |[30;1mk[0m|[30;1mr[0m|| 8
[32;1m[Board] [0m  -------------------
[32;1m[Board] [0m7 || |[7;1m [0m|[30;1mp[0m|[30;1mp[0m| |[30;1mp[0m|[30;1mp[0m|[30;1mp[0m|| 7
[32;1m[Board] [0m  -------------------
[32;1m[Board] [0m6 ||[30;1mp[0m|[30;1mp[0m|[7;1m [0m| |[30;1mp[0m|[30;1mQ[0m|[7;1m [0m| || 6
[32;1m[Board] [0m  -------------------
[32;1m[Board] [0m5 || |[7;1m [0m| |[7;1m [0m| |[7;1m [0m| |[7;1m [0m|| 5
[32;1m[Board] [0m  -------------------
[32;1m[Board] [0m4 ||[7;1m [0m|[30;1mk[0m|[7;1m [0m| |[7;1m [0m| |[7;1m [0m|[0;1mp[0m|| 4
[32;1m[Board] [0m  -------------------
[32;1m[Board] [0m3 || |[7;1m [0m|[0;1mk[0m|[7;1m [0m| |[7;1m [0m|[0;1mp[0m|[0;1mb[0m|| 3
[32;1m[Board] [0m  -------------------
[32;1m[Board] [0m2 ||[0;1mp[0m| |[7;1m [0m|[0;1mp[0m|[0;1mp[0m|[0;1mk[0m|[7;1m [0m| || 2
[32;1m[Board] [0m  -------------------
[32;1m[Board] [0m1 ||[0;1mr[0m|[7;1m [0m|[0;1mb[0m|[0;1mQ[0m|[0;1mK[0m|[7;1m [0m| |[0;1mr[0m|| 1
[32;1m[Board] [0m  -------------------
[32;1m[Board] [0m    a b c d e f g h
[32;1m[Board] [0m
[32;1m[Referee] [0mThis is the turn of the Black player...
[DEBUG] Input history filename: championship/lizzie-iii-logic-and-proofs/history.csv
[DEBUG] Output move file: championship/lizzie-iii-logic-and-proofs/move.csv
starting search...
searched and found best move in search: 33346
Total nodes searched: 44765
how i see the board before writing next move: Turn: Black
Enpassant: xx	Castling: WK WQ BK BQ 
   ---- ---- ---- ---- ---- ---- ---- ----
8 | r  |    | b  |    | k  |    | n  | r  |
   ---- ---- ---- ---- ---- ---- ---- ----
7 |    |    | p  | p  |    | p  | p  | p  |
   ---- ---- ---- ---- ---- ---- ---- ----
6 | p  | p  |    |    | p  | q  |    |    |
   ---- ---- ---- ---- ---- ---- ---- ----
5 |    |    |    |    |    |    |    |    |
   ---- ---- ---- ---- ---- ---- ---- ----
4 |    | n  |    |    |    |    |    | P  |
   ---- ---- ---- ---- ---- ---- ---- ----
3 |    |    | N  |    |    |    | P  | B  |
   ---- ---- ---- ---- ---- ---- ---- ----
2 | P  |    |    | P  | P  | N  |    |    |
   ---- ---- ---- ---- ---- ---- ---- ----
1 | R  |    | B  | Q  | K  |    |    | R  |
   ---- ---- ---- ---- ---- ---- ---- ----
    a    b    c    d    e    f    g    h
[DEBUG] [Parser] Wrote to ouput file championship/lizzie-iii-logic-and-proofs/move.csv move : c8b7
[32;1m[Game] [0mPlayer's error code: 0
[32;1m[Game] [0mChecking move validity...
[32;1m[Board] [0mInitializing board...
[32;1m[Board] [0mLoading history file `championship/lizzie-iii-logic-and-proofs/history.csv`...
[32;1m[Board] [0mLoaded 17 move(s).
[32;1m[Board] [0mLoading move file `championship/lizzie-iii-logic-and-proofs/move.csv`...
[32;1m[Board] [0mBlack player is playing c8 to b7.
[32;1m[Board] [0m
[32;1m[Board] [0m    a b c d e f g h 
[32;1m[Board] [0m  -------------------
[32;1m[Board] [0m8 ||[30;1mr[0m| |[7;1m [0m| |[30;1mK[0m| |[30;1mk[0m|[30;1mr[0m|| 8
[32;1m[Board] [0m  -------------------
[32;1m[Board] [0m7 || |[30;1mb[0m|[30;1mp[0m|[30;1mp[0m| |[30;1mp[0m|[30;1mp[0m|[30;1mp[0m|| 7
[32;1m[Board] [0m  -------------------
[32;1m[Board] [0m6 ||[30;1mp[0m|[30;1mp[0m|[7;1m [0m| |[30;1mp[0m|[30;1mQ[0m|[7;1m [0m| || 6
[32;1m[Board] [0m  -------------------
[32;1m[Board] [0m5 || |[7;1m [0m| |[7;1m [0m| |[7;1m [0m| |[7;1m [0m|| 5
[32;1m[Board] [0m  -------------------
[32;1m[Board] [0m4 ||[7;1m [0m|[30;1mk[0m|[7;1m [0m| |[7;1m [0m| |[7;1m [0m|[0;1mp[0m|| 4
[32;1m[Board] [0m  -------------------
[32;1m[Board] [0m3 || |[7;1m [0m|[0;1mk[0m|[7;1m [0m| |[7;1m [0m|[0;1mp[0m|[0;1mb[0m|| 3
[32;1m[Board] [0m  -------------------
[32;1m[Board] [0m2 ||[0;1mp[0m| |[7;1m [0m|[0;1mp[0m|[0;1mp[0m|[0;1mk[0m|[7;1m [0m| || 2
[32;1m[Board] [0m  -------------------
[32;1m[Board] [0m1 ||[0;1mr[0m|[7;1m [0m|[0;1mb[0m|[0;1mQ[0m|[0;1mK[0m|[7;1m [0m| |[0;1mr[0m|| 1
[32;1m[Board] [0m  -------------------
[32;1m[Board] [0m    a b c d e f g h
[32;1m[Board] [0m
[32;1m[Referee] [0mThis is the turn of the White player...
Input file: championship/lizzie-iii-logic-and-proofs/history.csv
Output file: championship/lizzie-iii-logic-and-proofs/move.csv
Turn of: white
Succesful move
b2b4
8 | R N B Q K B N R 
7 | P P P P P P P P 
6 | _ _ _ _ _ _ _ _ 
5 | _ _ _ _ _ _ _ _ 
4 | _ P _ _ _ _ _ _ 
3 | _ _ _ _ _ _ _ _ 
2 | P _ P P P P P P 
1 | R N B Q K B N R 
-------------------
  | A B C D E F G H 

Turn of: black
Succesful move
a7a6
8 | R N B Q K B N R 
7 | _ P P P P P P P 
6 | P _ _ _ _ _ _ _ 
5 | _ _ _ _ _ _ _ _ 
4 | _ P _ _ _ _ _ _ 
3 | _ _ _ _ _ _ _ _ 
2 | P _ P P P P P P 
1 | R N B Q K B N R 
-------------------
  | A B C D E F G H 

Turn of: white
Succesful move
c2c4
8 | R N B Q K B N R 
7 | _ P P P P P P P 
6 | P _ _ _ _ _ _ _ 
5 | _ _ _ _ _ _ _ _ 
4 | _ P P _ _ _ _ _ 
3 | _ _ _ _ _ _ _ _ 
2 | P _ _ P P P P P 
1 | R N B Q K B N R 
-------------------
  | A B C D E F G H 

Turn of: black
Succesful move
e7e6
8 | R N B Q K B N R 
7 | _ P P P _ P P P 
6 | P _ _ _ P _ _ _ 
5 | _ _ _ _ _ _ _ _ 
4 | _ P P _ _ _ _ _ 
3 | _ _ _ _ _ _ _ _ 
2 | P _ _ P P P P P 
1 | R N B Q K B N R 
-------------------
  | A B C D E F G H 

Turn of: white
Succesful move
c4c5
8 | R N B Q K B N R 
7 | _ P P P _ P P P 
6 | P _ _ _ P _ _ _ 
5 | _ _ P _ _ _ _ _ 
4 | _ P _ _ _ _ _ _ 
3 | _ _ _ _ _ _ _ _ 
2 | P _ _ P P P P P 
1 | R N B Q K B N R 
-------------------
  | A B C D E F G H 

Turn of: black
Succesful move
b8c6
8 | R _ B Q K B N R 
7 | _ P P P _ P P P 
6 | P _ N _ P _ _ _ 
5 | _ _ P _ _ _ _ _ 
4 | _ P _ _ _ _ _ _ 
3 | _ _ _ _ _ _ _ _ 
2 | P _ _ P P P P P 
1 | R N B Q K B N R 
-------------------
  | A B C D E F G H 

Turn of: white
Succesful move
g2g3
8 | R _ B Q K B N R 
7 | _ P P P _ P P P 
6 | P _ N _ P _ _ _ 
5 | _ _ P _ _ _ _ _ 
4 | _ P _ _ _ _ _ _ 
3 | _ _ _ _ _ _ P _ 
2 | P _ _ P P P _ P 
1 | R N B Q K B N R 
-------------------
  | A B C D E F G H 

Turn of: black
Succesful move
c6b4
8 | R _ B Q K B N R 
7 | _ P P P _ P P P 
6 | P _ _ _ P _ _ _ 
5 | _ _ P _ _ _ _ _ 
4 | _ N _ _ _ _ _ _ 
3 | _ _ _ _ _ _ P _ 
2 | P _ _ P P P _ P 
1 | R N B Q K B N R 
-------------------
  | A B C D E F G H 

Turn of: white
Succesful move
b1c3
8 | R _ B Q K B N R 
7 | _ P P P _ P P P 
6 | P _ _ _ P _ _ _ 
5 | _ _ P _ _ _ _ _ 
4 | _ N _ _ _ _ _ _ 
3 | _ _ N _ _ _ P _ 
2 | P _ _ P P P _ P 
1 | R _ B Q K B N R 
-------------------
  | A B C D E F G H 

Turn of: black
Succesful move
f8c5
8 | R _ B Q K _ N R 
7 | _ P P P _ P P P 
6 | P _ _ _ P _ _ _ 
5 | _ _ B _ _ _ _ _ 
4 | _ N _ _ _ _ _ _ 
3 | _ _ N _ _ _ P _ 
2 | P _ _ P P P _ P 
1 | R _ B Q K B N R 
-------------------
  | A B C D E F G H 

Turn of: white
Succesful move
g1h3
8 | R _ B Q K _ N R 
7 | _ P P P _ P P P 
6 | P _ _ _ P _ _ _ 
5 | _ _ B _ _ _ _ _ 
4 | _ N _ _ _ _ _ _ 
3 | _ _ N _ _ _ P N 
2 | P _ _ P P P _ P 
1 | R _ B Q K B _ R 
-------------------
  | A B C D E F G H 

Turn of: black
Succesful move
c5f2
8 | R _ B Q K _ N R 
7 | _ P P P _ P P P 
6 | P _ _ _ P _ _ _ 
5 | _ _ _ _ _ _ _ _ 
4 | _ N _ _ _ _ _ _ 
3 | _ _ N _ _ _ P N 
2 | P _ _ P P B _ P 
1 | R _ B Q K B _ R 
-------------------
  | A B C D E F G H 

Turn of: white
Succesful move
h3f2
8 | R _ B Q K _ N R 
7 | _ P P P _ P P P 
6 | P _ _ _ P _ _ _ 
5 | _ _ _ _ _ _ _ _ 
4 | _ N _ _ _ _ _ _ 
3 | _ _ N _ _ _ P _ 
2 | P _ _ P P N _ P 
1 | R _ B Q K B _ R 
-------------------
  | A B C D E F G H 

Turn of: black
Succesful move
d8f6
8 | R _ B _ K _ N R 
7 | _ P P P _ P P P 
6 | P _ _ _ P Q _ _ 
5 | _ _ _ _ _ _ _ _ 
4 | _ N _ _ _ _ _ _ 
3 | _ _ N _ _ _ P _ 
2 | P _ _ P P N _ P 
1 | R _ B Q K B _ R 
-------------------
  | A B C D E F G H 

Turn of: white
Succesful move
h2h4
8 | R _ B _ K _ N R 
7 | _ P P P _ P P P 
6 | P _ _ _ P Q _ _ 
5 | _ _ _ _ _ _ _ _ 
4 | _ N _ _ _ _ _ P 
3 | _ _ N _ _ _ P _ 
2 | P _ _ P P N _ _ 
1 | R _ B Q K B _ R 
-------------------
  | A B C D E F G H 

Turn of: black
Succesful move
b7b6
8 | R _ B _ K _ N R 
7 | _ _ P P _ P P P 
6 | P P _ _ P Q _ _ 
5 | _ _ _ _ _ _ _ _ 
4 | _ N _ _ _ _ _ P 
3 | _ _ N _ _ _ P _ 
2 | P _ _ P P N _ _ 
1 | R _ B Q K B _ R 
-------------------
  | A B C D E F G H 

Turn of: white
Succesful move
f1h3
8 | R _ B _ K _ N R 
7 | _ _ P P _ P P P 
6 | P P _ _ P Q _ _ 
5 | _ _ _ _ _ _ _ _ 
4 | _ N _ _ _ _ _ P 
3 | _ _ N _ _ _ P B 
2 | P _ _ P P N _ _ 
1 | R _ B Q K _ _ R 
-------------------
  | A B C D E F G H 

Turn of: black
Succesful move
c8b7
8 | R _ _ _ K _ N R 
7 | _ B P P _ P P P 
6 | P P _ _ P Q _ _ 
5 | _ _ _ _ _ _ _ _ 
4 | _ N _ _ _ _ _ P 
3 | _ _ N _ _ _ P B 
2 | P _ _ P P N _ _ 
1 | R _ B Q K _ _ R 
-------------------
  | A B C D E F G H 

We are playing as White
Move history:
b2b4
a7a6
c2c4
e7e6
c4c5
b8c6
g2g3
c6b4
b1c3
f8c5
g1h3
c5f2
h3f2
d8f6
h2h4
b7b6
f1h3
c8b7
8 | R _ _ _ K _ N R 
7 | _ B P P _ P P P 
6 | P P _ _ P Q _ _ 
5 | _ _ _ _ _ _ _ _ 
4 | _ N _ _ _ _ _ P 
3 | _ _ N _ _ _ P B 
2 | P _ _ P P N _ _ 
1 | R _ B Q K _ _ R 
-------------------
  | A B C D E F G H 

It is white's turn to play.
AI's move: c3b5
Move written: c3b5
[32;1m[Game] [0mPlayer's error code: 0
[32;1m[Game] [0mChecking move validity...
[32;1m[Board] [0mInitializing board...
[32;1m[Board] [0mLoading history file `championship/lizzie-iii-logic-and-proofs/history.csv`...
[32;1m[Board] [0mLoaded 18 move(s).
[32;1m[Board] [0mLoading move file `championship/lizzie-iii-logic-and-proofs/move.csv`...
[32;1m[Board] [0mWhite player is playing c3 to b5.
[32;1m[Board] [0m
[32;1m[Board] [0m    a b c d e f g h 
[32;1m[Board] [0m  -------------------
[32;1m[Board] [0m8 ||[30;1mr[0m| |[7;1m [0m| |[30;1mK[0m| |[30;1mk[0m|[30;1mr[0m|| 8
[32;1m[Board] [0m  -------------------
[32;1m[Board] [0m7 || |[30;1mb[0m|[30;1mp[0m|[30;1mp[0m| |[30;1mp[0m|[30;1mp[0m|[30;1mp[0m|| 7
[32;1m[Board] [0m  -------------------
[32;1m[Board] [0m6 ||[30;1mp[0m|[30;1mp[0m|[7;1m [0m| |[30;1mp[0m|[30;1mQ[0m|[7;1m [0m| || 6
[32;1m[Board] [0m  -------------------
[32;1m[Board] [0m5 || |[0;1mk[0m| |[7;1m [0m| |[7;1m [0m| |[7;1m [0m|| 5
[32;1m[Board] [0m  -------------------
[32;1m[Board] [0m4 ||[7;1m [0m|[30;1mk[0m|[7;1m [0m| |[7;1m [0m| |[7;1m [0m|[0;1mp[0m|| 4
[32;1m[Board] [0m  -------------------
[32;1m[Board] [0m3 || |[7;1m [0m| |[7;1m [0m| |[7;1m [0m|[0;1mp[0m|[0;1mb[0m|| 3
[32;1m[Board] [0m  -------------------
[32;1m[Board] [0m2 ||[0;1mp[0m| |[7;1m [0m|[0;1mp[0m|[0;1mp[0m|[0;1mk[0m|[7;1m [0m| || 2
[32;1m[Board] [0m  -------------------
[32;1m[Board] [0m1 ||[0;1mr[0m|[7;1m [0m|[0;1mb[0m|[0;1mQ[0m|[0;1mK[0m|[7;1m [0m| |[0;1mr[0m|| 1
[32;1m[Board] [0m  -------------------
[32;1m[Board] [0m    a b c d e f g h
[32;1m[Board] [0m
[32;1m[Referee] [0mThis is the turn of the Black player...
[DEBUG] Input history filename: championship/lizzie-iii-logic-and-proofs/history.csv
[DEBUG] Output move file: championship/lizzie-iii-logic-and-proofs/move.csv
starting search...
searched and found best move in search: 1074768
Total nodes searched: 32185
how i see the board before writing next move: Turn: Black
Enpassant: xx	Castling: WK WQ BK BQ 
   ---- ---- ---- ---- ---- ---- ---- ----
8 | r  |    |    |    | k  |    | n  | r  |
   ---- ---- ---- ---- ---- ---- ---- ----
7 |    | b  | p  | p  |    | p  | p  | p  |
   ---- ---- ---- ---- ---- ---- ---- ----
6 | p  | p  |    |    | p  | q  |    |    |
   ---- ---- ---- ---- ---- ---- ---- ----
5 |    | N  |    |    |    |    |    |    |
   ---- ---- ---- ---- ---- ---- ---- ----
4 |    | n  |    |    |    |    |    | P  |
   ---- ---- ---- ---- ---- ---- ---- ----
3 |    |    |    |    |    |    | P  | B  |
   ---- ---- ---- ---- ---- ---- ---- ----
2 | P  |    |    | P  | P  | N  |    |    |
   ---- ---- ---- ---- ---- ---- ---- ----
1 | R  |    | B  | Q  | K  |    |    | R  |
   ---- ---- ---- ---- ---- ---- ---- ----
    a    b    c    d    e    f    g    h
[DEBUG] [Parser] Wrote to ouput file championship/lizzie-iii-logic-and-proofs/move.csv move : a6b5
[32;1m[Game] [0mPlayer's error code: 0
[32;1m[Game] [0mChecking move validity...
[32;1m[Board] [0mInitializing board...
[32;1m[Board] [0mLoading history file `championship/lizzie-iii-logic-and-proofs/history.csv`...
[32;1m[Board] [0mLoaded 19 move(s).
[32;1m[Board] [0mLoading move file `championship/lizzie-iii-logic-and-proofs/move.csv`...
[32;1m[Board] [0mBlack player is playing a6 to b5.
[32;1m[Board] [0m[5;1mBlack Pawn is taking White Knight.[0m
[32;1m[Board] [0m
[32;1m[Board] [0m    a b c d e f g h 
[32;1m[Board] [0m  -------------------
[32;1m[Board] [0m8 ||[30;1mr[0m| |[7;1m [0m| |[30;1mK[0m| |[30;1mk[0m|[30;1mr[0m|| 8
[32;1m[Board] [0m  -------------------
[32;1m[Board] [0m7 || |[30;1mb[0m|[30;1mp[0m|[30;1mp[0m| |[30;1mp[0m|[30;1mp[0m|[30;1mp[0m|| 7
[32;1m[Board] [0m  -------------------
[32;1m[Board] [0m6 ||[7;1m [0m|[30;1mp[0m|[7;1m [0m| |[30;1mp[0m|[30;1mQ[0m|[7;1m [0m| || 6
[32;1m[Board] [0m  -------------------
[32;1m[Board] [0m5 || |[30;1mp[0m| |[7;1m [0m| |[7;1m [0m| |[7;1m [0m|| 5
[32;1m[Board] [0m  -------------------
[32;1m[Board] [0m4 ||[7;1m [0m|[30;1mk[0m|[7;1m [0m| |[7;1m [0m| |[7;1m [0m|[0;1mp[0m|| 4
[32;1m[Board] [0m  -------------------
[32;1m[Board] [0m3 || |[7;1m [0m| |[7;1m [0m| |[7;1m [0m|[0;1mp[0m|[0;1mb[0m|| 3
[32;1m[Board] [0m  -------------------
[32;1m[Board] [0m2 ||[0;1mp[0m| |[7;1m [0m|[0;1mp[0m|[0;1mp[0m|[0;1mk[0m|[7;1m [0m| || 2
[32;1m[Board] [0m  -------------------
[32;1m[Board] [0m1 ||[0;1mr[0m|[7;1m [0m|[0;1mb[0m|[0;1mQ[0m|[0;1mK[0m|[7;1m [0m| |[0;1mr[0m|| 1
[32;1m[Board] [0m  -------------------
[32;1m[Board] [0m    a b c d e f g h
[32;1m[Board] [0m
[32;1m[Referee] [0mThis is the turn of the White player...
Input file: championship/lizzie-iii-logic-and-proofs/history.csv
Output file: championship/lizzie-iii-logic-and-proofs/move.csv
Turn of: white
Succesful move
b2b4
8 | R N B Q K B N R 
7 | P P P P P P P P 
6 | _ _ _ _ _ _ _ _ 
5 | _ _ _ _ _ _ _ _ 
4 | _ P _ _ _ _ _ _ 
3 | _ _ _ _ _ _ _ _ 
2 | P _ P P P P P P 
1 | R N B Q K B N R 
-------------------
  | A B C D E F G H 

Turn of: black
Succesful move
a7a6
8 | R N B Q K B N R 
7 | _ P P P P P P P 
6 | P _ _ _ _ _ _ _ 
5 | _ _ _ _ _ _ _ _ 
4 | _ P _ _ _ _ _ _ 
3 | _ _ _ _ _ _ _ _ 
2 | P _ P P P P P P 
1 | R N B Q K B N R 
-------------------
  | A B C D E F G H 

Turn of: white
Succesful move
c2c4
8 | R N B Q K B N R 
7 | _ P P P P P P P 
6 | P _ _ _ _ _ _ _ 
5 | _ _ _ _ _ _ _ _ 
4 | _ P P _ _ _ _ _ 
3 | _ _ _ _ _ _ _ _ 
2 | P _ _ P P P P P 
1 | R N B Q K B N R 
-------------------
  | A B C D E F G H 

Turn of: black
Succesful move
e7e6
8 | R N B Q K B N R 
7 | _ P P P _ P P P 
6 | P _ _ _ P _ _ _ 
5 | _ _ _ _ _ _ _ _ 
4 | _ P P _ _ _ _ _ 
3 | _ _ _ _ _ _ _ _ 
2 | P _ _ P P P P P 
1 | R N B Q K B N R 
-------------------
  | A B C D E F G H 

Turn of: white
Succesful move
c4c5
8 | R N B Q K B N R 
7 | _ P P P _ P P P 
6 | P _ _ _ P _ _ _ 
5 | _ _ P _ _ _ _ _ 
4 | _ P _ _ _ _ _ _ 
3 | _ _ _ _ _ _ _ _ 
2 | P _ _ P P P P P 
1 | R N B Q K B N R 
-------------------
  | A B C D E F G H 

Turn of: black
Succesful move
b8c6
8 | R _ B Q K B N R 
7 | _ P P P _ P P P 
6 | P _ N _ P _ _ _ 
5 | _ _ P _ _ _ _ _ 
4 | _ P _ _ _ _ _ _ 
3 | _ _ _ _ _ _ _ _ 
2 | P _ _ P P P P P 
1 | R N B Q K B N R 
-------------------
  | A B C D E F G H 

Turn of: white
Succesful move
g2g3
8 | R _ B Q K B N R 
7 | _ P P P _ P P P 
6 | P _ N _ P _ _ _ 
5 | _ _ P _ _ _ _ _ 
4 | _ P _ _ _ _ _ _ 
3 | _ _ _ _ _ _ P _ 
2 | P _ _ P P P _ P 
1 | R N B Q K B N R 
-------------------
  | A B C D E F G H 

Turn of: black
Succesful move
c6b4
8 | R _ B Q K B N R 
7 | _ P P P _ P P P 
6 | P _ _ _ P _ _ _ 
5 | _ _ P _ _ _ _ _ 
4 | _ N _ _ _ _ _ _ 
3 | _ _ _ _ _ _ P _ 
2 | P _ _ P P P _ P 
1 | R N B Q K B N R 
-------------------
  | A B C D E F G H 

Turn of: white
Succesful move
b1c3
8 | R _ B Q K B N R 
7 | _ P P P _ P P P 
6 | P _ _ _ P _ _ _ 
5 | _ _ P _ _ _ _ _ 
4 | _ N _ _ _ _ _ _ 
3 | _ _ N _ _ _ P _ 
2 | P _ _ P P P _ P 
1 | R _ B Q K B N R 
-------------------
  | A B C D E F G H 

Turn of: black
Succesful move
f8c5
8 | R _ B Q K _ N R 
7 | _ P P P _ P P P 
6 | P _ _ _ P _ _ _ 
5 | _ _ B _ _ _ _ _ 
4 | _ N _ _ _ _ _ _ 
3 | _ _ N _ _ _ P _ 
2 | P _ _ P P P _ P 
1 | R _ B Q K B N R 
-------------------
  | A B C D E F G H 

Turn of: white
Succesful move
g1h3
8 | R _ B Q K _ N R 
7 | _ P P P _ P P P 
6 | P _ _ _ P _ _ _ 
5 | _ _ B _ _ _ _ _ 
4 | _ N _ _ _ _ _ _ 
3 | _ _ N _ _ _ P N 
2 | P _ _ P P P _ P 
1 | R _ B Q K B _ R 
-------------------
  | A B C D E F G H 

Turn of: black
Succesful move
c5f2
8 | R _ B Q K _ N R 
7 | _ P P P _ P P P 
6 | P _ _ _ P _ _ _ 
5 | _ _ _ _ _ _ _ _ 
4 | _ N _ _ _ _ _ _ 
3 | _ _ N _ _ _ P N 
2 | P _ _ P P B _ P 
1 | R _ B Q K B _ R 
-------------------
  | A B C D E F G H 

Turn of: white
Succesful move
h3f2
8 | R _ B Q K _ N R 
7 | _ P P P _ P P P 
6 | P _ _ _ P _ _ _ 
5 | _ _ _ _ _ _ _ _ 
4 | _ N _ _ _ _ _ _ 
3 | _ _ N _ _ _ P _ 
2 | P _ _ P P N _ P 
1 | R _ B Q K B _ R 
-------------------
  | A B C D E F G H 

Turn of: black
Succesful move
d8f6
8 | R _ B _ K _ N R 
[...]
  | A B C D E F G H 

Turn of: white
Succesful move
e3d3
8 | R _ _ _ K _ _ R 
7 | _ _ _ _ _ P P P 
6 | _ P _ _ P _ _ _ 
5 | _ P P N _ _ _ _ 
4 | _ _ _ _ N _ P P 
3 | _ _ _ K _ _ _ _ 
2 | P _ _ P P _ _ _ 
1 | _ _ _ Q _ _ Q B 
-------------------
  | A B C D E F G H 

Turn of: black
Succesful move
d5b4
8 | R _ _ _ K _ _ R 
7 | _ _ _ _ _ P P P 
6 | _ P _ _ P _ _ _ 
5 | _ P P _ _ _ _ _ 
4 | _ N _ _ N _ P P 
3 | _ _ _ K _ _ _ _ 
2 | P _ _ P P _ _ _ 
1 | _ _ _ Q _ _ Q B 
-------------------
  | A B C D E F G H 

Turn of: white
Succesful move
d3e3
8 | R _ _ _ K _ _ R 
7 | _ _ _ _ _ P P P 
6 | _ P _ _ P _ _ _ 
5 | _ P P _ _ _ _ _ 
4 | _ N _ _ N _ P P 
3 | _ _ _ _ K _ _ _ 
2 | P _ _ P P _ _ _ 
1 | _ _ _ Q _ _ Q B 
-------------------
  | A B C D E F G H 

Turn of: black
Succesful move
b4d5
8 | R _ _ _ K _ _ R 
7 | _ _ _ _ _ P P P 
6 | _ P _ _ P _ _ _ 
5 | _ P P N _ _ _ _ 
4 | _ _ _ _ N _ P P 
3 | _ _ _ _ K _ _ _ 
2 | P _ _ P P _ _ _ 
1 | _ _ _ Q _ _ Q B 
-------------------
  | A B C D E F G H 

We are playing as White
Move history:
b2b4
a7a6
c2c4
e7e6
c4c5
b8c6
g2g3
c6b4
b1c3
f8c5
g1h3
c5f2
h3f2
d8f6
h2h4
b7b6
f1h3
c8b7
c3b5
a6b5
h3e6
b7h1
d1b3
f6a1
e1f1
a1c1
f2d1
d7e6
g3g4
c7c5
b3g3
c1d1
f1f2
g8f6
g3g1
f6e4
f2e3
b4d5
e3d3
d5b4
d3e3
b4d5
8 | R _ _ _ K _ _ R 
7 | _ _ _ _ _ P P P 
6 | _ P _ _ P _ _ _ 
5 | _ P P N _ _ _ _ 
4 | _ _ _ _ N _ P P 
3 | _ _ _ _ K _ _ _ 
2 | P _ _ P P _ _ _ 
1 | _ _ _ Q _ _ Q B 
-------------------
  | A B C D E F G H 

It is white's turn to play.
AI's move: e3d3
Move written: e3d3
[32;1m[Game] [0mPlayer's error code: 0
[32;1m[Game] [0mChecking move validity...
[32;1m[Board] [0mInitializing board...
[32;1m[Board] [0mLoading history file `championship/lizzie-iii-logic-and-proofs/history.csv`...
[32;1m[Board] [0mLoaded 42 move(s).
[32;1m[Board] [0mLoading move file `championship/lizzie-iii-logic-and-proofs/move.csv`...
[32;1m[Board] [0mWhite player is playing e3 to d3.
[32;1m[Board] [0m
[32;1m[Board] [0m    a b c d e f g h 
[32;1m[Board] [0m  -------------------
[32;1m[Board] [0m8 ||[30;1mr[0m| |[7;1m [0m| |[30;1mK[0m| |[7;1m [0m|[30;1mr[0m|| 8
[32;1m[Board] [0m  -------------------
[32;1m[Board] [0m7 || |[7;1m [0m| |[7;1m [0m| |[30;1mp[0m|[30;1mp[0m|[30;1mp[0m|| 7
[32;1m[Board] [0m  -------------------
[32;1m[Board] [0m6 ||[7;1m [0m|[30;1mp[0m|[7;1m [0m| |[30;1mp[0m| |[7;1m [0m| || 6
[32;1m[Board] [0m  -------------------
[32;1m[Board] [0m5 || |[30;1mp[0m|[30;1mp[0m|[30;1mk[0m| |[7;1m [0m| |[7;1m [0m|| 5
[32;1m[Board] [0m  -------------------
[32;1m[Board] [0m4 ||[7;1m [0m| |[7;1m [0m| |[30;1mk[0m| |[0;1mp[0m|[0;1mp[0m|| 4
[32;1m[Board] [0m  -------------------
[32;1m[Board] [0m3 || |[7;1m [0m| |[0;1mK[0m| |[7;1m [0m| |[7;1m [0m|| 3
[32;1m[Board] [0m  -------------------
[32;1m[Board] [0m2 ||[0;1mp[0m| |[7;1m [0m|[0;1mp[0m|[0;1mp[0m| |[7;1m [0m| || 2
[32;1m[Board] [0m  -------------------
[32;1m[Board] [0m1 || |[7;1m [0m| |[30;1mQ[0m| |[7;1m [0m|[0;1mQ[0m|[30;1mb[0m|| 1
[32;1m[Board] [0m  -------------------
[32;1m[Board] [0m    a b c d e f g h
[32;1m[Board] [0m
[32;1m[Referee] [0mThis is the turn of the Black player...
[32;1m[Board] [0m[33;1m[WARNING][0m Current board equals previous board (move #39)
[DEBUG] Input history filename: championship/lizzie-iii-logic-and-proofs/history.csv
[DEBUG] Output move file: championship/lizzie-iii-logic-and-proofs/move.csv
starting search...
searched and found best move in search: 30811
Total nodes searched: 15176
how i see the board before writing next move: Turn: Black
Enpassant: xx	Castling: xxBK BQ 
   ---- ---- ---- ---- ---- ---- ---- ----
8 | r  |    |    |    | k  |    |    | r  |
   ---- ---- ---- ---- ---- ---- ---- ----
7 |    |    |    |    |    | p  | p  | p  |
   ---- ---- ---- ---- ---- ---- ---- ----
6 |    | p  |    |    | p  |    |    |    |
   ---- ---- ---- ---- ---- ---- ---- ----
5 |    | p  | p  | n  |    |    |    |    |
   ---- ---- ---- ---- ---- ---- ---- ----
4 |    |    |    |    | n  |    | P  | P  |
   ---- ---- ---- ---- ---- ---- ---- ----
3 |    |    |    | K  |    |    |    |    |
   ---- ---- ---- ---- ---- ---- ---- ----
2 | P  |    |    | P  | P  |    |    |    |
   ---- ---- ---- ---- ---- ---- ---- ----
1 |    |    |    | q  |    |    | Q  | b  |
   ---- ---- ---- ---- ---- ---- ---- ----
    a    b    c    d    e    f    g    h
[DEBUG] [Parser] Wrote to ouput file championship/lizzie-iii-logic-and-proofs/move.csv move : d5b4
[32;1m[Game] [0mPlayer's error code: 0
[32;1m[Game] [0mChecking move validity...
[32;1m[Board] [0mInitializing board...
[32;1m[Board] [0mLoading history file `championship/lizzie-iii-logic-and-proofs/history.csv`...
[32;1m[Board] [0mLoaded 43 move(s).
[32;1m[Board] [0mLoading move file `championship/lizzie-iii-logic-and-proofs/move.csv`...
[32;1m[Board] [0mBlack player is playing d5 to b4.
[32;1m[Board] [0m
[32;1m[Board] [0m    a b c d e f g h 
[32;1m[Board] [0m  -------------------
[32;1m[Board] [0m8 ||[30;1mr[0m| |[7;1m [0m| |[30;1mK[0m| |[7;1m [0m|[30;1mr[0m|| 8
[32;1m[Board] [0m  -------------------
[32;1m[Board] [0m7 || |[7;1m [0m| |[7;1m [0m| |[30;1mp[0m|[30;1mp[0m|[30;1mp[0m|| 7
[32;1m[Board] [0m  -------------------
[32;1m[Board] [0m6 ||[7;1m [0m|[30;1mp[0m|[7;1m [0m| |[30;1mp[0m| |[7;1m [0m| || 6
[32;1m[Board] [0m  -------------------
[32;1m[Board] [0m5 || |[30;1mp[0m|[30;1mp[0m|[7;1m [0m| |[7;1m [0m| |[7;1m [0m|| 5
[32;1m[Board] [0m  -------------------
[32;1m[Board] [0m4 ||[7;1m [0m|[30;1mk[0m|[7;1m [0m| |[30;1mk[0m| |[0;1mp[0m|[0;1mp[0m|| 4
[32;1m[Board] [0m  -------------------
[32;1m[Board] [0m3 || |[7;1m [0m| |[0;1mK[0m| |[7;1m [0m| |[7;1m [0m|| 3
[32;1m[Board] [0m  -------------------
[32;1m[Board] [0m2 ||[0;1mp[0m| |[7;1m [0m|[0;1mp[0m|[0;1mp[0m| |[7;1m [0m| || 2
[32;1m[Board] [0m  -------------------
[32;1m[Board] [0m1 || |[7;1m [0m| |[30;1mQ[0m| |[7;1m [0m|[0;1mQ[0m|[30;1mb[0m|| 1
[32;1m[Board] [0m  -------------------
[32;1m[Board] [0m    a b c d e f g h
[32;1m[Board] [0m
[32;1m[Referee] [0mThis is the turn of the White player...
[32;1m[Board] [0m[33;1m[WARNING][0m Current board equals previous board (move #40)
[32;1m[Board] [0m[33;1m[WARNING][0m [5;1mWhite King in check![0m
[32;1m[Board] [0m[33;1m[WARNING][0m    Threatened by Black Knight (b4)
Input file: championship/lizzie-iii-logic-and-proofs/history.csv
Output file: championship/lizzie-iii-logic-and-proofs/move.csv
Turn of: white
Succesful move
b2b4
8 | R N B Q K B N R 
7 | P P P P P P P P 
6 | _ _ _ _ _ _ _ _ 
5 | _ _ _ _ _ _ _ _ 
4 | _ P _ _ _ _ _ _ 
3 | _ _ _ _ _ _ _ _ 
2 | P _ P P P P P P 
1 | R N B Q K B N R 
-------------------
  | A B C D E F G H 

Turn of: black
Succesful move
a7a6
8 | R N B Q K B N R 
7 | _ P P P P P P P 
6 | P _ _ _ _ _ _ _ 
5 | _ _ _ _ _ _ _ _ 
4 | _ P _ _ _ _ _ _ 
3 | _ _ _ _ _ _ _ _ 
2 | P _ P P P P P P 
1 | R N B Q K B N R 
-------------------
  | A B C D E F G H 

Turn of: white
Succesful move
c2c4
8 | R N B Q K B N R 
7 | _ P P P P P P P 
6 | P _ _ _ _ _ _ _ 
5 | _ _ _ _ _ _ _ _ 
4 | _ P P _ _ _ _ _ 
3 | _ _ _ _ _ _ _ _ 
2 | P _ _ P P P P P 
1 | R N B Q K B N R 
-------------------
  | A B C D E F G H 

Turn of: black
Succesful move
e7e6
8 | R N B Q K B N R 
7 | _ P P P _ P P P 
6 | P _ _ _ P _ _ _ 
5 | _ _ _ _ _ _ _ _ 
4 | _ P P _ _ _ _ _ 
3 | _ _ _ _ _ _ _ _ 
2 | P _ _ P P P P P 
1 | R N B Q K B N R 
-------------------
  | A B C D E F G H 

Turn of: white
Succesful move
c4c5
8 | R N B Q K B N R 
7 | _ P P P _ P P P 
6 | P _ _ _ P _ _ _ 
5 | _ _ P _ _ _ _ _ 
4 | _ P _ _ _ _ _ _ 
3 | _ _ _ _ _ _ _ _ 
2 | P _ _ P P P P P 
1 | R N B Q K B N R 
-------------------
  | A B C D E F G H 

Turn of: black
Succesful move
b8c6
8 | R _ B Q K B N R 
7 | _ P P P _ P P P 
6 | P _ N _ P _ _ _ 
5 | _ _ P _ _ _ _ _ 
4 | _ P _ _ _ _ _ _ 
3 | _ _ _ _ _ _ _ _ 
2 | P _ _ P P P P P 
1 | R N B Q K B N R 
-------------------
  | A B C D E F G H 

Turn of: white
Succesful move
g2g3
8 | R _ B Q K B N R 
7 | _ P P P _ P P P 
6 | P _ N _ P _ _ _ 
5 | _ _ P _ _ _ _ _ 
4 | _ P _ _ _ _ _ _ 
3 | _ _ _ _ _ _ P _ 
2 | P _ _ P P P _ P 
1 | R N B Q K B N R 
-------------------
  | A B C D E F G H 

Turn of: black
Succesful move
c6b4
8 | R _ B Q K B N R 
7 | _ P P P _ P P P 
6 | P _ _ _ P _ _ _ 
5 | _ _ P _ _ _ _ _ 
4 | _ N _ _ _ _ _ _ 
3 | _ _ _ _ _ _ P _ 
2 | P _ _ P P P _ P 
1 | R N B Q K B N R 
-------------------
  | A B C D E F G H 

Turn of: white
Succesful move
b1c3
8 | R _ B Q K B N R 
7 | _ P P P _ P P P 
6 | P _ _ _ P _ _ _ 
5 | _ _ P _ _ _ _ _ 
4 | _ N _ _ _ _ _ _ 
3 | _ _ N _ _ _ P _ 
2 | P _ _ P P P _ P 
1 | R _ B Q K B N R 
-------------------
  | A B C D E F G H 

Turn of: black
Succesful move
f8c5
8 | R _ B Q K _ N R 
7 | _ P P P _ P P P 
6 | P _ _ _ P _ _ _ 
5 | _ _ B _ _ _ _ _ 
4 | _ N _ _ _ _ _ _ 
3 | _ _ N _ _ _ P _ 
2 | P _ _ P P P _ P 
1 | R _ B Q K B N R 
-------------------
  | A B C D E F G H 

Turn of: white
Succesful move
g1h3
8 | R _ B Q K _ N R 
7 | _ P P P _ P P P 
6 | P _ _ _ P _ _ _ 
5 | _ _ B _ _ _ _ _ 
4 | _ N _ _ _ _ _ _ 
3 | _ _ N _ _ _ P N 
2 | P _ _ P P P _ P 
1 | R _ B Q K B _ R 
-------------------
  | A B C D E F G H 

Turn of: black
Succesful move
c5f2
8 | R _ B Q K _ N R 
7 | _ P P P _ P P P 
6 | P _ _ _ P _ _ _ 
5 | _ _ _ _ _ _ _ _ 
4 | _ N _ _ _ _ _ _ 
3 | _ _ N _ _ _ P N 
2 | P _ _ P P B _ P 
1 | R _ B Q K B _ R 
-------------------
  | A B C D E F G H 

Turn of: white
Succesful move
h3f2
8 | R _ B Q K _ N R 
7 | _ P P P _ P P P 
6 | P _ _ _ P _ _ _ 
5 | _ _ _ _ _ _ _ _ 
4 | _ N _ _ _ _ _ _ 
3 | _ _ N _ _ _ P _ 
2 | P _ _ P P N _ P 
1 | R _ B Q K B _ R 
-------------------
  | A B C D E F G H 

Turn of: black
Succesful move
d8f6
8 | R _ B _ K _ N R 
7 | _ P P P _ P P P 
6 | P _ _ _ P Q _ _ 
5 | _ _ _ _ _ _ _ _ 
4 | _ N _ _ _ _ _ _ 
3 | _ _ N _ _ _ P _ 
2 | P _ _ P P N _ P 
1 | R _ B Q K B _ R 
-------------------
  | A B C D E F G H 

Turn of: white
Succesful move
h2h4
8 | R _ B _ K _ N R 
7 | _ P P P _ P P P 
6 | P _ _ _ P Q _ _ 
5 | _ _ _ _ _ _ _ _ 
4 | _ N _ _ _ _ _ P 
3 | _ _ N _ _ _ P _ 
2 | P _ _ P P N _ _ 
1 | R _ B Q K B _ R 
-------------------
  | A B C D E F G H 

Turn of: black
Succesful move
b7b6
8 | R _ B _ K _ N R 
7 | _ _ P P _ P P P 
6 | P P _ _ P Q _ _ 
5 | _ _ _ _ _ _ _ _ 
4 | _ N _ _ _ _ _ P 
3 | _ _ N _ _ _ P _ 
2 | P _ _ P P N _ _ 
1 | R _ B Q K B _ R 
-------------------
  | A B C D E F G H 

Turn of: white
Succesful move
f1h3
8 | R _ B _ K _ N R 
7 | _ _ P P _ P P P 
6 | P P _ _ P Q _ _ 
5 | _ _ _ _ _ _ _ _ 
4 | _ N _ _ _ _ _ P 
3 | _ _ N _ _ _ P B 
2 | P _ _ P P N _ _ 
1 | R _ B Q K _ _ R 
-------------------
  | A B C D E F G H 

Turn of: black
Succesful move
c8b7
8 | R _ _ _ K _ N R 
7 | _ B P P _ P P P 
6 | P P _ _ P Q _ _ 
5 | _ _ _ _ _ _ _ _ 
4 | _ N _ _ _ _ _ P 
3 | _ _ N _ _ _ P B 
2 | P _ _ P P N _ _ 
1 | R _ B Q K _ _ R 
-------------------
  | A B C D E F G H 

Turn of: white
Succesful move
c3b5
8 | R _ _ _ K _ N R 
7 | _ B P P _ P P P 
6 | P P _ _ P Q _ _ 
5 | _ N _ _ _ _ _ _ 
4 | _ N _ _ _ _ _ P 
3 | _ _ _ _ _ _ P B 
2 | P _ _ P P N _ _ 
1 | R _ B Q K _ _ R 
-------------------
  | A B C D E F G H 

Turn of: black
Succesful move
a6b5
8 | R _ _ _ K _ N R 
7 | _ B P P _ P P P 
6 | _ P _ _ P Q _ _ 
5 | _ P _ _ _ _ _ _ 
4 | _ N _ _ _ _ _ P 
3 | _ _ _ _ _ _ P B 
2 | P _ _ P P N _ _ 
1 | R _ B Q K _ _ R 
-------------------
  | A B C D E F G H 

Turn of: white
Succesful move
h3e6
8 | R _ _ _ K _ N R 
7 | _ B P P _ P P P 
6 | _ P _ _ B Q _ _ 
5 | _ P _ _ _ _ _ _ 
4 | _ N _ _ _ _ _ P 
3 | _ _ _ _ _ _ P _ 
2 | P _ _ P P N _ _ 
1 | R _ B Q K _ _ R 
-------------------
  | A B C D E F G H 

Turn of: black
Succesful move
b7h1
8 | R _ _ _ K _ N R 
7 | _ _ P P _ P P P 
6 | _ P _ _ B Q _ _ 
5 | _ P _ _ _ _ _ _ 
4 | _ N _ _ _ _ _ P 
3 | _ _ _ _ _ _ P _ 
2 | P _ _ P P N _ _ 
1 | R _ B Q K _ _ B 
-------------------
  | A B C D E F G H 

Turn of: white
Succesful move
d1b3
8 | R _ _ _ K _ N R 
7 | _ _ P P _ P P P 
6 | _ P _ _ B Q _ _ 
5 | _ P _ _ _ _ _ _ 
4 | _ N _ _ _ _ _ P 
3 | _ Q _ _ _ _ P _ 
2 | P _ _ P P N _ _ 
1 | R _ B _ K _ _ B 
-------------------
  | A B C D E F G H 

Turn of: black
Succesful move
f6a1
8 | R _ _ _ K _ N R 
7 | _ _ P P _ P P P 
6 | _ P _ _ B _ _ _ 
5 | _ P _ _ _ _ _ _ 
4 | _ N _ _ _ _ _ P 
3 | _ Q _ _ _ _ P _ 
2 | P _ _ P P N _ _ 
1 | Q _ B _ K _ _ B 
-------------------
  | A B C D E F G H 

Turn of: white
Succesful move
e1f1
8 | R _ _ _ K _ N R 
7 | _ _ P P _ P P P 
6 | _ P _ _ B _ _ _ 
5 | _ P _ _ _ _ _ _ 
4 | _ N _ _ _ _ _ P 
3 | _ Q _ _ _ _ P _ 
2 | P _ _ P P N _ _ 
1 | Q _ B _ _ K _ B 
-------------------
  | A B C D E F G H 

Turn of: black
Succesful move
a1c1
8 | R _ _ _ K _ N R 
7 | _ _ P P _ P P P 
6 | _ P _ _ B _ _ _ 
5 | _ P _ _ _ _ _ _ 
4 | _ N _ _ _ _ _ P 
3 | _ Q _ _ _ _ P _ 
2 | P _ _ P P N _ _ 
1 | _ _ Q _ _ K _ B 
-------------------
  | A B C D E F G H 

Turn of: white
Succesful move
f2d1
8 | R _ _ _ K _ N R 
7 | _ _ P P _ P P P 
6 | _ P _ _ B _ _ _ 
5 | _ P _ _ _ _ _ _ 
4 | _ N _ _ _ _ _ P 
3 | _ Q _ _ _ _ P _ 
2 | P _ _ P P _ _ _ 
1 | _ _ Q N _ K _ B 
-------------------
  | A B C D E F G H 

Turn of: black
Succesful move
d7e6
8 | R _ _ _ K _ N R 
7 | _ _ P _ _ P P P 
6 | _ P _ _ P _ _ _ 
5 | _ P _ _ _ _ _ _ 
4 | _ N _ _ _ _ _ P 
3 | _ Q _ _ _ _ P _ 
2 | P _ _ P P _ _ _ 
1 | _ _ Q N _ K _ B 
-------------------
  | A B C D E F G H 

Turn of: white
Succesful move
g3g4
8 | R _ _ _ K _ N R 
7 | _ _ P _ _ P P P 
6 | _ P _ _ P _ _ _ 
5 | _ P _ _ _ _ _ _ 
4 | _ N _ _ _ _ P P 
3 | _ Q _ _ _ _ _ _ 
2 | P _ _ P P _ _ _ 
1 | _ _ Q N _ K _ B 
-------------------
  | A B C D E F G H 

Turn of: black
Succesful move
c7c5
8 | R _ _ _ K _ N R 
7 | _ _ _ _ _ P P P 
6 | _ P _ _ P _ _ _ 
5 | _ P P _ _ _ _ _ 
4 | _ N _ _ _ _ P P 
3 | _ Q _ _ _ _ _ _ 
2 | P _ _ P P _ _ _ 
1 | _ _ Q N _ K _ B 
-------------------
  | A B C D E F G H 

Turn of: white
Succesful move
b3g3
8 | R _ _ _ K _ N R 
7 | _ _ _ _ _ P P P 
6 | _ P _ _ P _ _ _ 
5 | _ P P _ _ _ _ _ 
4 | _ N _ _ _ _ P P 
3 | _ _ _ _ _ _ Q _ 
2 | P _ _ P P _ _ _ 
1 | _ _ Q N _ K _ B 
-------------------
  | A B C D E F G H 

Turn of: black
Succesful move
c1d1
8 | R _ _ _ K _ N R 
7 | _ _ _ _ _ P P P 
6 | _ P _ _ P _ _ _ 
5 | _ P P _ _ _ _ _ 
4 | _ N _ _ _ _ P P 
3 | _ _ _ _ _ _ Q _ 
2 | P _ _ P P _ _ _ 
1 | _ _ _ Q _ K _ B 
-------------------
  | A B C D E F G H 

Turn of: white
Succesful move
f1f2
8 | R _ _ _ K _ N R 
7 | _ _ _ _ _ P P P 
6 | _ P _ _ P _ _ _ 
5 | _ P P _ _ _ _ _ 
4 | _ N _ _ _ _ P P 
3 | _ _ _ _ _ _ Q _ 
2 | P _ _ P P K _ _ 
1 | _ _ _ Q _ _ _ B 
-------------------
  | A B C D E F G H 

Turn of: black
Succesful move
g8f6
8 | R _ _ _ K _ _ R 
7 | _ _ _ _ _ P P P 
6 | _ P _ _ P N _ _ 
5 | _ P P _ _ _ _ _ 
4 | _ N _ _ _ _ P P 
3 | _ _ _ _ _ _ Q _ 
2 | P _ _ P P K _ _ 
1 | _ _ _ Q _ _ _ B 
-------------------
  | A B C D E F G H 

Turn of: white
Succesful move
g3g1
8 | R _ _ _ K _ _ R 
7 | _ _ _ _ _ P P P 
6 | _ P _ _ P N _ _ 
5 | _ P P _ _ _ _ _ 
4 | _ N _ _ _ _ P P 
3 | _ _ _ _ _ _ _ _ 
2 | P _ _ P P K _ _ 
1 | _ _ _ Q _ _ Q B 
-------------------
  | A B C D E F G H 

Turn of: black
Succesful move
f6e4
8 | R _ _ _ K _ _ R 
7 | _ _ _ _ _ P P P 
6 | _ P _ _ P _ _ _ 
5 | _ P P _ _ _ _ _ 
4 | _ N _ _ N _ P P 
3 | _ _ _ _ _ _ _ _ 
2 | P _ _ P P K _ _ 
1 | _ _ _ Q _ _ Q B 
-------------------
  | A B C D E F G H 

Turn of: white
Succesful move
f2e3
8 | R _ _ _ K _ _ R 
7 | _ _ _ _ _ P P P 
6 | _ P _ _ P _ _ _ 
5 | _ P P _ _ _ _ _ 
4 | _ N _ _ N _ P P 
3 | _ _ _ _ K _ _ _ 
2 | P _ _ P P _ _ _ 
1 | _ _ _ Q _ _ Q B 
-------------------
  | A B C D E F G H 

Turn of: black
Succesful move
b4d5
8 | R _ _ _ K _ _ R 
7 | _ _ _ _ _ P P P 
6 | _ P _ _ P _ _ _ 
5 | _ P P N _ _ _ _ 
4 | _ _ _ _ N _ P P 
3 | _ _ _ _ K _ _ _ 
2 | P _ _ P P _ _ _ 
1 | _ _ _ Q _ _ Q B 
-------------------
  | A B C D E F G H 

Turn of: white
Succesful move
e3d3
8 | R _ _ _ K _ _ R 
7 | _ _ _ _ _ P P P 
6 | _ P _ _ P _ _ _ 
5 | _ P P N _ _ _ _ 
4 | _ _ _ _ N _ P P 
3 | _ _ _ K _ _ _ _ 
2 | P _ _ P P _ _ _ 
1 | _ _ _ Q _ _ Q B 
-------------------
  | A B C D E F G H 

Turn of: black
Succesful move
d5b4
8 | R _ _ _ K _ _ R 
7 | _ _ _ _ _ P P P 
6 | _ P _ _ P _ _ _ 
5 | _ P P _ _ _ _ _ 
4 | _ N _ _ N _ P P 
3 | _ _ _ K _ _ _ _ 
2 | P _ _ P P _ _ _ 
1 | _ _ _ Q _ _ Q B 
-------------------
  | A B C D E F G H 

Turn of: white
Succesful move
d3e3
8 | R _ _ _ K _ _ R 
7 | _ _ _ _ _ P P P 
6 | _ P _ _ P _ _ _ 
5 | _ P P _ _ _ _ _ 
4 | _ N _ _ N _ P P 
3 | _ _ _ _ K _ _ _ 
2 | P _ _ P P _ _ _ 
1 | _ _ _ Q _ _ Q B 
-------------------
  | A B C D E F G H 

Turn of: black
Succesful move
b4d5
8 | R _ _ _ K _ _ R 
7 | _ _ _ _ _ P P P 
6 | _ P _ _ P _ _ _ 
5 | _ P P N _ _ _ _ 
4 | _ _ _ _ N _ P P 
3 | _ _ _ _ K _ _ _ 
2 | P _ _ P P _ _ _ 
1 | _ _ _ Q _ _ Q B 
-------------------
  | A B C D E F G H 

Turn of: white
Succesful move
e3d3
8 | R _ _ _ K _ _ R 
7 | _ _ _ _ _ P P P 
6 | _ P _ _ P _ _ _ 
5 | _ P P N _ _ _ _ 
4 | _ _ _ _ N _ P P 
3 | _ _ _ K _ _ _ _ 
2 | P _ _ P P _ _ _ 
1 | _ _ _ Q _ _ Q B 
-------------------
  | A B C D E F G H 

Turn of: black
Succesful move
d5b4
8 | R _ _ _ K _ _ R 
7 | _ _ _ _ _ P P P 
6 | _ P _ _ P _ _ _ 
5 | _ P P _ _ _ _ _ 
4 | _ N _ _ N _ P P 
3 | _ _ _ K _ _ _ _ 
2 | P _ _ P P _ _ _ 
1 | _ _ _ Q _ _ Q B 
-------------------
  | A B C D E F G H 

We are playing as White
Move history:
b2b4
a7a6
c2c4
e7e6
c4c5
b8c6
g2g3
c6b4
b1c3
f8c5
g1h3
c5f2
h3f2
d8f6
h2h4
b7b6
f1h3
c8b7
c3b5
a6b5
h3e6
b7h1
d1b3
f6a1
e1f1
a1c1
f2d1
d7e6
g3g4
c7c5
b3g3
c1d1
f1f2
g8f6
g3g1
f6e4
f2e3
b4d5
e3d3
d5b4
d3e3
b4d5
e3d3
d5b4
8 | R _ _ _ K _ _ R 
7 | _ _ _ _ _ P P P 
6 | _ P _ _ P _ _ _ 
5 | _ P P _ _ _ _ _ 
4 | _ N _ _ N _ P P 
3 | _ _ _ K _ _ _ _ 
2 | P _ _ P P _ _ _ 
1 | _ _ _ Q _ _ Q B 
-------------------
  | A B C D E F G H 

It is white's turn to play.
AI's move: d3e3
Move written: d3e3
[32;1m[Game] [0mPlayer's error code: 0
[32;1m[Game] [0mChecking move validity...
[32;1m[Board] [0mInitializing board...
[32;1m[Board] [0mLoading history file `championship/lizzie-iii-logic-and-proofs/history.csv`...
[32;1m[Board] [0mLoaded 44 move(s).
[32;1m[Board] [0mLoading move file `championship/lizzie-iii-logic-and-proofs/move.csv`...
[32;1m[Board] [0mWhite player is playing d3 to e3.
[32;1m[Board] [0m
[32;1m[Board] [0m    a b c d e f g h 
[32;1m[Board] [0m  -------------------
[32;1m[Board] [0m8 ||[30;1mr[0m| |[7;1m [0m| |[30;1mK[0m| |[7;1m [0m|[30;1mr[0m|| 8
[32;1m[Board] [0m  -------------------
[32;1m[Board] [0m7 || |[7;1m [0m| |[7;1m [0m| |[30;1mp[0m|[30;1mp[0m|[30;1mp[0m|| 7
[32;1m[Board] [0m  -------------------
[32;1m[Board] [0m6 ||[7;1m [0m|[30;1mp[0m|[7;1m [0m| |[30;1mp[0m| |[7;1m [0m| || 6
[32;1m[Board] [0m  -------------------
[32;1m[Board] [0m5 || |[30;1mp[0m|[30;1mp[0m|[7;1m [0m| |[7;1m [0m| |[7;1m [0m|| 5
[32;1m[Board] [0m  -------------------
[32;1m[Board] [0m4 ||[7;1m [0m|[30;1mk[0m|[7;1m [0m| |[30;1mk[0m| |[0;1mp[0m|[0;1mp[0m|| 4
[32;1m[Board] [0m  -------------------
[32;1m[Board] [0m3 || |[7;1m [0m| |[7;1m [0m|[0;1mK[0m|[7;1m [0m| |[7;1m [0m|| 3
[32;1m[Board] [0m  -------------------
[32;1m[Board] [0m2 ||[0;1mp[0m| |[7;1m [0m|[0;1mp[0m|[0;1mp[0m| |[7;1m [0m| || 2
[32;1m[Board] [0m  -------------------
[32;1m[Board] [0m1 || |[7;1m [0m| |[30;1mQ[0m| |[7;1m [0m|[0;1mQ[0m|[30;1mb[0m|| 1
[32;1m[Board] [0m  -------------------
[32;1m[Board] [0m    a b c d e f g h
[32;1m[Board] [0m
[32;1m[Referee] [0mThis is the turn of the Black player...
[32;1m[Board] [0m[33;1m[WARNING][0m Current board equals previous board (move #37)
[32;1m[Board] [0m[33;1m[WARNING][0m Current board equals previous board (move #41)
[32;1m[Board] [0m[33;1m[WARNING][0m [5;1mThe current board occurred at least 3 times already :([0m
[32;1m[Board] [0m[33;1m[WARNING][0m Draw! Game over.
