[32;1m[Board] [0mInitializing board...
[32;1m[Board] [0m
[32;1m[Board] [0m    a b c d e f g h 
[32;1m[Board] [0m  -------------------
[32;1m[Board] [0m8 ||[30;1mr[0m|[30;1mk[0m|[30;1mb[0m|[30;1mQ[0m|[30;1mK[0m|[30;1mb[0m|[30;1mk[0m|[30;1mr[0m|| 8
[32;1m[Board] [0m  -------------------
[32;1m[Board] [0m7 ||[30;1mp[0m|[30;1mp[0m|[30;1mp[0m|[30;1mp[0m|[30;1mp[0m|[30;1mp[0m|[30;1mp[0m|[30;1mp[0m|| 7
[32;1m[Board] [0m  -------------------
[32;1m[Board] [0m6 ||[7;1m [0m| |[7;1m [0m| |[7;1m [0m| |[7;1m [0m| || 6
[32;1m[Board] [0m  -------------------
[32;1m[Board] [0m5 || |[7;1m [0m| |[7;1m [0m| |[7;1m [0m| |[7;1m [0m|| 5
[32;1m[Board] [0m  -------------------
[32;1m[Board] [0m4 ||[7;1m [0m| |[7;1m [0m| |[7;1m [0m| |[7;1m [0m| || 4
[32;1m[Board] [0m  -------------------
[32;1m[Board] [0m3 || |[7;1m [0m| |[7;1m [0m| |[7;1m [0m| |[7;1m [0m|| 3
[32;1m[Board] [0m  -------------------
[32;1m[Board] [0m2 ||[0;1mp[0m|[0;1mp[0m|[0;1mp[0m|[0;1mp[0m|[0;1mp[0m|[0;1mp[0m|[0;1mp[0m|[0;1mp[0m|| 2
[32;1m[Board] [0m  -------------------
[32;1m[Board] [0m1 ||[0;1mr[0m|[0;1mk[0m|[0;1mb[0m|[0;1mQ[0m|[0;1mK[0m|[0;1mb[0m|[0;1mk[0m|[0;1mr[0m|| 1
[32;1m[Board] [0m  -------------------
[32;1m[Board] [0m    a b c d e f g h
[32;1m[Board] [0m
[32;1m[Referee] [0mThis is the turn of the White player...
Input file: championship/lizzie-iii-shallowcyan/history.csv
Output file: championship/lizzie-iii-shallowcyan/move.csv
We are playing as White
Move history:
8 | R N B Q K B N R 
7 | P P P P P P P P 
6 | _ _ _ _ _ _ _ _ 
5 | _ _ _ _ _ _ _ _ 
4 | _ _ _ _ _ _ _ _ 
3 | _ _ _ _ _ _ _ _ 
2 | P P P P P P P P 
1 | R N B Q K B N R 
-------------------
  | A B C D E F G H 

It is white's turn to play.
AI's move: h2h3
Move written: h2h3
[32;1m[Game] [0mPlayer's error code: 0
[32;1m[Game] [0mChecking move validity...
[32;1m[Board] [0mInitializing board...
[32;1m[Board] [0mLoading history file `championship/lizzie-iii-shallowcyan/history.csv`...
[32;1m[Board] [0mLoaded 0 move(s).
[32;1m[Board] [0mLoading move file `championship/lizzie-iii-shallowcyan/move.csv`...
[32;1m[Board] [0mWhite player is playing h2 to h3.
[32;1m[Board] [0m
[32;1m[Board] [0m    a b c d e f g h 
[32;1m[Board] [0m  -------------------
[32;1m[Board] [0m8 ||[30;1mr[0m|[30;1mk[0m|[30;1mb[0m|[30;1mQ[0m|[30;1mK[0m|[30;1mb[0m|[30;1mk[0m|[30;1mr[0m|| 8
[32;1m[Board] [0m  -------------------
[32;1m[Board] [0m7 ||[30;1mp[0m|[30;1mp[0m|[30;1mp[0m|[30;1mp[0m|[30;1mp[0m|[30;1mp[0m|[30;1mp[0m|[30;1mp[0m|| 7
[32;1m[Board] [0m  -------------------
[32;1m[Board] [0m6 ||[7;1m [0m| |[7;1m [0m| |[7;1m [0m| |[7;1m [0m| || 6
[32;1m[Board] [0m  -------------------
[32;1m[Board] [0m5 || |[7;1m [0m| |[7;1m [0m| |[7;1m [0m| |[7;1m [0m|| 5
[32;1m[Board] [0m  -------------------
[32;1m[Board] [0m4 ||[7;1m [0m| |[7;1m [0m| |[7;1m [0m| |[7;1m [0m| || 4
[32;1m[Board] [0m  -------------------
[32;1m[Board] [0m3 || |[7;1m [0m| |[7;1m [0m| |[7;1m [0m| |[0;1mp[0m|| 3
[32;1m[Board] [0m  -------------------
[32;1m[Board] [0m2 ||[0;1mp[0m|[0;1mp[0m|[0;1mp[0m|[0;1mp[0m|[0;1mp[0m|[0;1mp[0m|[0;1mp[0m| || 2
[32;1m[Board] [0m  -------------------
[32;1m[Board] [0m1 ||[0;1mr[0m|[0;1mk[0m|[0;1mb[0m|[0;1mQ[0m|[0;1mK[0m|[0;1mb[0m|[0;1mk[0m|[0;1mr[0m|| 1
[32;1m[Board] [0m  -------------------
[32;1m[Board] [0m    a b c d e f g h
[32;1m[Board] [0m
[32;1m[Referee] [0mThis is the turn of the Black player...
8 [100m ♖ [43m ♘ [100m ♗ [43m ♕ [100m ♔ [43m ♗ [100m ♘ [43m ♖ [40m
7 [43m ♙ [100m ♙ [43m ♙ [100m ♙ [43m ♙ [100m ♙ [43m ♙ [100m ♙ [40m
6 [100m   [43m   [100m   [43m   [100m   [43m   [100m   [43m   [40m
5 [43m   [100m   [43m   [100m   [43m   [100m   [43m   [100m   [40m
4 [100m   [43m   [100m   [43m   [100m   [43m   [100m   [43m   [40m
3 [43m   [100m   [43m   [100m   [43m   [100m   [43m   [100m ♟ [40m
2 [100m ♟ [43m ♟ [100m ♟ [43m ♟ [100m ♟ [43m ♟ [100m ♟ [43m   [40m
1 [43m ♜ [100m ♞ [43m ♝ [100m ♛ [43m ♚ [100m ♝ [43m ♞ [100m ♜ [40m
   a  b  c  d  e  f  g  h  
[32;1m[Game] [0mPlayer's error code: 0
[32;1m[Game] [0mChecking move validity...
[32;1m[Board] [0mInitializing board...
[32;1m[Board] [0mLoading history file `championship/lizzie-iii-shallowcyan/history.csv`...
[32;1m[Board] [0mLoaded 1 move(s).
[32;1m[Board] [0mLoading move file `championship/lizzie-iii-shallowcyan/move.csv`...
[32;1m[Board] [0mBlack player is playing f7 to f6.
[32;1m[Board] [0m
[32;1m[Board] [0m    a b c d e f g h 
[32;1m[Board] [0m  -------------------
[32;1m[Board] [0m8 ||[30;1mr[0m|[30;1mk[0m|[30;1mb[0m|[30;1mQ[0m|[30;1mK[0m|[30;1mb[0m|[30;1mk[0m|[30;1mr[0m|| 8
[32;1m[Board] [0m  -------------------
[32;1m[Board] [0m7 ||[30;1mp[0m|[30;1mp[0m|[30;1mp[0m|[30;1mp[0m|[30;1mp[0m|[7;1m [0m|[30;1mp[0m|[30;1mp[0m|| 7
[32;1m[Board] [0m  -------------------
[32;1m[Board] [0m6 ||[7;1m [0m| |[7;1m [0m| |[7;1m [0m|[30;1mp[0m|[7;1m [0m| || 6
[32;1m[Board] [0m  -------------------
[32;1m[Board] [0m5 || |[7;1m [0m| |[7;1m [0m| |[7;1m [0m| |[7;1m [0m|| 5
[32;1m[Board] [0m  -------------------
[32;1m[Board] [0m4 ||[7;1m [0m| |[7;1m [0m| |[7;1m [0m| |[7;1m [0m| || 4
[32;1m[Board] [0m  -------------------
[32;1m[Board] [0m3 || |[7;1m [0m| |[7;1m [0m| |[7;1m [0m| |[0;1mp[0m|| 3
[32;1m[Board] [0m  -------------------
[32;1m[Board] [0m2 ||[0;1mp[0m|[0;1mp[0m|[0;1mp[0m|[0;1mp[0m|[0;1mp[0m|[0;1mp[0m|[0;1mp[0m| || 2
[32;1m[Board] [0m  -------------------
[32;1m[Board] [0m1 ||[0;1mr[0m|[0;1mk[0m|[0;1mb[0m|[0;1mQ[0m|[0;1mK[0m|[0;1mb[0m|[0;1mk[0m|[0;1mr[0m|| 1
[32;1m[Board] [0m  -------------------
[32;1m[Board] [0m    a b c d e f g h
[32;1m[Board] [0m
[32;1m[Referee] [0mThis is the turn of the White player...
Input file: championship/lizzie-iii-shallowcyan/history.csv
Output file: championship/lizzie-iii-shallowcyan/move.csv
Turn of: white
Succesful move
h2h3
8 | R N B Q K B N R 
7 | P P P P P P P P 
6 | _ _ _ _ _ _ _ _ 
5 | _ _ _ _ _ _ _ _ 
4 | _ _ _ _ _ _ _ _ 
3 | _ _ _ _ _ _ _ P 
2 | P P P P P P P _ 
1 | R N B Q K B N R 
-------------------
  | A B C D E F G H 

Turn of: black
Succesful move
f7f6
8 | R N B Q K B N R 
7 | P P P P P _ P P 
6 | _ _ _ _ _ P _ _ 
5 | _ _ _ _ _ _ _ _ 
4 | _ _ _ _ _ _ _ _ 
3 | _ _ _ _ _ _ _ P 
2 | P P P P P P P _ 
1 | R N B Q K B N R 
-------------------
  | A B C D E F G H 

We are playing as White
Move history:
h2h3
f7f6
8 | R N B Q K B N R 
7 | P P P P P _ P P 
6 | _ _ _ _ _ P _ _ 
5 | _ _ _ _ _ _ _ _ 
4 | _ _ _ _ _ _ _ _ 
3 | _ _ _ _ _ _ _ P 
2 | P P P P P P P _ 
1 | R N B Q K B N R 
-------------------
  | A B C D E F G H 

It is white's turn to play.
AI's move: c2c3
Move written: c2c3
[32;1m[Game] [0mPlayer's error code: 0
[32;1m[Game] [0mChecking move validity...
[32;1m[Board] [0mInitializing board...
[32;1m[Board] [0mLoading history file `championship/lizzie-iii-shallowcyan/history.csv`...
[32;1m[Board] [0mLoaded 2 move(s).
[32;1m[Board] [0mLoading move file `championship/lizzie-iii-shallowcyan/move.csv`...
[32;1m[Board] [0mWhite player is playing c2 to c3.
[32;1m[Board] [0m
[32;1m[Board] [0m    a b c d e f g h 
[32;1m[Board] [0m  -------------------
[32;1m[Board] [0m8 ||[30;1mr[0m|[30;1mk[0m|[30;1mb[0m|[30;1mQ[0m|[30;1mK[0m|[30;1mb[0m|[30;1mk[0m|[30;1mr[0m|| 8
[32;1m[Board] [0m  -------------------
[32;1m[Board] [0m7 ||[30;1mp[0m|[30;1mp[0m|[30;1mp[0m|[30;1mp[0m|[30;1mp[0m|[7;1m [0m|[30;1mp[0m|[30;1mp[0m|| 7
[32;1m[Board] [0m  -------------------
[32;1m[Board] [0m6 ||[7;1m [0m| |[7;1m [0m| |[7;1m [0m|[30;1mp[0m|[7;1m [0m| || 6
[32;1m[Board] [0m  -------------------
[32;1m[Board] [0m5 || |[7;1m [0m| |[7;1m [0m| |[7;1m [0m| |[7;1m [0m|| 5
[32;1m[Board] [0m  -------------------
[32;1m[Board] [0m4 ||[7;1m [0m| |[7;1m [0m| |[7;1m [0m| |[7;1m [0m| || 4
[32;1m[Board] [0m  -------------------
[32;1m[Board] [0m3 || |[7;1m [0m|[0;1mp[0m|[7;1m [0m| |[7;1m [0m| |[0;1mp[0m|| 3
[32;1m[Board] [0m  -------------------
[32;1m[Board] [0m2 ||[0;1mp[0m|[0;1mp[0m|[7;1m [0m|[0;1mp[0m|[0;1mp[0m|[0;1mp[0m|[0;1mp[0m| || 2
[32;1m[Board] [0m  -------------------
[32;1m[Board] [0m1 ||[0;1mr[0m|[0;1mk[0m|[0;1mb[0m|[0;1mQ[0m|[0;1mK[0m|[0;1mb[0m|[0;1mk[0m|[0;1mr[0m|| 1
[32;1m[Board] [0m  -------------------
[32;1m[Board] [0m    a b c d e f g h
[32;1m[Board] [0m
[32;1m[Referee] [0mThis is the turn of the Black player...
8 [100m ♖ [43m ♘ [100m ♗ [43m ♕ [100m ♔ [43m ♗ [100m ♘ [43m ♖ [40m
7 [43m ♙ [100m ♙ [43m ♙ [100m ♙ [43m ♙ [100m   [43m ♙ [100m ♙ [40m
6 [100m   [43m   [100m   [43m   [100m   [43m ♙ [100m   [43m   [40m
5 [43m   [100m   [43m   [100m   [43m   [100m   [43m   [100m   [40m
4 [100m   [43m   [100m   [43m   [100m   [43m   [100m   [43m   [40m
3 [43m   [100m   [43m ♟ [100m   [43m   [100m   [43m   [100m ♟ [40m
2 [100m ♟ [43m ♟ [100m   [43m ♟ [100m ♟ [43m ♟ [100m ♟ [43m   [40m
1 [43m ♜ [100m ♞ [43m ♝ [100m ♛ [43m ♚ [100m ♝ [43m ♞ [100m ♜ [40m
   a  b  c  d  e  f  g  h  
[32;1m[Game] [0mPlayer's error code: 0
[32;1m[Game] [0mChecking move validity...
[32;1m[Board] [0mInitializing board...
[32;1m[Board] [0mLoading history file `championship/lizzie-iii-shallowcyan/history.csv`...
[32;1m[Board] [0mLoaded 3 move(s).
[32;1m[Board] [0mLoading move file `championship/lizzie-iii-shallowcyan/move.csv`...
[32;1m[Board] [0mBlack player is playing b7 to b5.
[32;1m[Board] [0m
[32;1m[Board] [0m    a b c d e f g h 
[32;1m[Board] [0m  -------------------
[32;1m[Board] [0m8 ||[30;1mr[0m|[30;1mk[0m|[30;1mb[0m|[30;1mQ[0m|[30;1mK[0m|[30;1mb[0m|[30;1mk[0m|[30;1mr[0m|| 8
[32;1m[Board] [0m  -------------------
[32;1m[Board] [0m7 ||[30;1mp[0m|[7;1m [0m|[30;1mp[0m|[30;1mp[0m|[30;1mp[0m|[7;1m [0m|[30;1mp[0m|[30;1mp[0m|| 7
[32;1m[Board] [0m  -------------------
[32;1m[Board] [0m6 ||[7;1m [0m| |[7;1m [0m| |[7;1m [0m|[30;1mp[0m|[7;1m [0m| || 6
[32;1m[Board] [0m  -------------------
[32;1m[Board] [0m5 || |[30;1mp[0m| |[7;1m [0m| |[7;1m [0m| |[7;1m [0m|| 5
[32;1m[Board] [0m  -------------------
[32;1m[Board] [0m4 ||[7;1m [0m| |[7;1m [0m| |[7;1m [0m| |[7;1m [0m| || 4
[32;1m[Board] [0m  -------------------
[32;1m[Board] [0m3 || |[7;1m [0m|[0;1mp[0m|[7;1m [0m| |[7;1m [0m| |[0;1mp[0m|| 3
[32;1m[Board] [0m  -------------------
[32;1m[Board] [0m2 ||[0;1mp[0m|[0;1mp[0m|[7;1m [0m|[0;1mp[0m|[0;1mp[0m|[0;1mp[0m|[0;1mp[0m| || 2
[32;1m[Board] [0m  -------------------
[32;1m[Board] [0m1 ||[0;1mr[0m|[0;1mk[0m|[0;1mb[0m|[0;1mQ[0m|[0;1mK[0m|[0;1mb[0m|[0;1mk[0m|[0;1mr[0m|| 1
[32;1m[Board] [0m  -------------------
[32;1m[Board] [0m    a b c d e f g h
[32;1m[Board] [0m
[32;1m[Referee] [0mThis is the turn of the White player...
Input file: championship/lizzie-iii-shallowcyan/history.csv
Output file: championship/lizzie-iii-shallowcyan/move.csv
Turn of: white
Succesful move
h2h3
8 | R N B Q K B N R 
7 | P P P P P P P P 
6 | _ _ _ _ _ _ _ _ 
5 | _ _ _ _ _ _ _ _ 
4 | _ _ _ _ _ _ _ _ 
3 | _ _ _ _ _ _ _ P 
2 | P P P P P P P _ 
1 | R N B Q K B N R 
-------------------
  | A B C D E F G H 

Turn of: black
Succesful move
f7f6
8 | R N B Q K B N R 
7 | P P P P P _ P P 
6 | _ _ _ _ _ P _ _ 
5 | _ _ _ _ _ _ _ _ 
4 | _ _ _ _ _ _ _ _ 
3 | _ _ _ _ _ _ _ P 
2 | P P P P P P P _ 
1 | R N B Q K B N R 
-------------------
  | A B C D E F G H 

Turn of: white
Succesful move
c2c3
8 | R N B Q K B N R 
7 | P P P P P _ P P 
6 | _ _ _ _ _ P _ _ 
5 | _ _ _ _ _ _ _ _ 
4 | _ _ _ _ _ _ _ _ 
3 | _ _ P _ _ _ _ P 
2 | P P _ P P P P _ 
1 | R N B Q K B N R 
-------------------
  | A B C D E F G H 

Turn of: black
Succesful move
b7b5
8 | R N B Q K B N R 
7 | P _ P P P _ P P 
6 | _ _ _ _ _ P _ _ 
5 | _ P _ _ _ _ _ _ 
4 | _ _ _ _ _ _ _ _ 
3 | _ _ P _ _ _ _ P 
2 | P P _ P P P P _ 
1 | R N B Q K B N R 
-------------------
  | A B C D E F G H 

We are playing as White
Move history:
h2h3
f7f6
c2c3
b7b5
8 | R N B Q K B N R 
7 | P _ P P P _ P P 
6 | _ _ _ _ _ P _ _ 
5 | _ P _ _ _ _ _ _ 
4 | _ _ _ _ _ _ _ _ 
3 | _ _ P _ _ _ _ P 
2 | P P _ P P P P _ 
1 | R N B Q K B N R 
-------------------
  | A B C D E F G H 

It is white's turn to play.
AI's move: h1h2
Move written: h1h2
[32;1m[Game] [0mPlayer's error code: 0
[32;1m[Game] [0mChecking move validity...
[32;1m[Board] [0mInitializing board...
[32;1m[Board] [0mLoading history file `championship/lizzie-iii-shallowcyan/history.csv`...
[32;1m[Board] [0mLoaded 4 move(s).
[32;1m[Board] [0mLoading move file `championship/lizzie-iii-shallowcyan/move.csv`...
[32;1m[Board] [0mWhite player is playing h1 to h2.
[32;1m[Board] [0m
[32;1m[Board] [0m    a b c d e f g h 
[32;1m[Board] [0m  -------------------
[32;1m[Board] [0m8 ||[30;1mr[0m|[30;1mk[0m|[30;1mb[0m|[30;1mQ[0m|[30;1mK[0m|[30;1mb[0m|[30;1mk[0m|[30;1mr[0m|| 8
[32;1m[Board] [0m  -------------------
[32;1m[Board] [0m7 ||[30;1mp[0m|[7;1m [0m|[30;1mp[0m|[30;1mp[0m|[30;1mp[0m|[7;1m [0m|[30;1mp[0m|[30;1mp[0m|| 7
[32;1m[Board] [0m  -------------------
[32;1m[Board] [0m6 ||[7;1m [0m| |[7;1m [0m| |[7;1m [0m|[30;1mp[0m|[7;1m [0m| || 6
[32;1m[Board] [0m  -------------------
[32;1m[Board] [0m5 || |[30;1mp[0m| |[7;1m [0m| |[7;1m [0m| |[7;1m [0m|| 5
[32;1m[Board] [0m  -------------------
[32;1m[Board] [0m4 ||[7;1m [0m| |[7;1m [0m| |[7;1m [0m| |[7;1m [0m| || 4
[32;1m[Board] [0m  -------------------
[32;1m[Board] [0m3 || |[7;1m [0m|[0;1mp[0m|[7;1m [0m| |[7;1m [0m| |[0;1mp[0m|| 3
[32;1m[Board] [0m  -------------------
[32;1m[Board] [0m2 ||[0;1mp[0m|[0;1mp[0m|[7;1m [0m|[0;1mp[0m|[0;1mp[0m|[0;1mp[0m|[0;1mp[0m|[0;1mr[0m|| 2
[32;1m[Board] [0m  -------------------
[32;1m[Board] [0m1 ||[0;1mr[0m|[0;1mk[0m|[0;1mb[0m|[0;1mQ[0m|[0;1mK[0m|[0;1mb[0m|[0;1mk[0m|[7;1m [0m|| 1
[32;1m[Board] [0m  -------------------
[32;1m[Board] [0m    a b c d e f g h
[32;1m[Board] [0m
[32;1m[Referee] [0mThis is the turn of the Black player...
8 [100m ♖ [43m ♘ [100m ♗ [43m ♕ [100m ♔ [43m ♗ [100m ♘ [43m ♖ [40m
7 [43m ♙ [100m   [43m ♙ [100m ♙ [43m ♙ [100m   [43m ♙ [100m ♙ [40m
6 [100m   [43m   [100m   [43m   [100m   [43m ♙ [100m   [43m   [40m
5 [43m   [100m ♙ [43m   [100m   [43m   [100m   [43m   [100m   [40m
4 [100m   [43m   [100m   [43m   [100m   [43m   [100m   [43m   [40m
3 [43m   [100m   [43m ♟ [100m   [43m   [100m   [43m   [100m ♟ [40m
2 [100m ♟ [43m ♟ [100m   [43m ♟ [100m ♟ [43m ♟ [100m ♟ [43m ♜ [40m
1 [43m ♜ [100m ♞ [43m ♝ [100m ♛ [43m ♚ [100m ♝ [43m ♞ [100m   [40m
   a  b  c  d  e  f  g  h  
[32;1m[Game] [0mPlayer's error code: 0
[32;1m[Game] [0mChecking move validity...
[32;1m[Board] [0mInitializing board...
[32;1m[Board] [0mLoading history file `championship/lizzie-iii-shallowcyan/history.csv`...
[32;1m[Board] [0mLoaded 5 move(s).
[32;1m[Board] [0mLoading move file `championship/lizzie-iii-shallowcyan/move.csv`...
[32;1m[Board] [0mBlack player is playing g7 to g6.
[32;1m[Board] [0m
[32;1m[Board] [0m    a b c d e f g h 
[32;1m[Board] [0m  -------------------
[32;1m[Board] [0m8 ||[30;1mr[0m|[30;1mk[0m|[30;1mb[0m|[30;1mQ[0m|[30;1mK[0m|[30;1mb[0m|[30;1mk[0m|[30;1mr[0m|| 8
[32;1m[Board] [0m  -------------------
[32;1m[Board] [0m7 ||[30;1mp[0m|[7;1m [0m|[30;1mp[0m|[30;1mp[0m|[30;1mp[0m|[7;1m [0m| |[30;1mp[0m|| 7
[32;1m[Board] [0m  -------------------
[32;1m[Board] [0m6 ||[7;1m [0m| |[7;1m [0m| |[7;1m [0m|[30;1mp[0m|[30;1mp[0m| || 6
[32;1m[Board] [0m  -------------------
[32;1m[Board] [0m5 || |[30;1mp[0m| |[7;1m [0m| |[7;1m [0m| |[7;1m [0m|| 5
[32;1m[Board] [0m  -------------------
[32;1m[Board] [0m4 ||[7;1m [0m| |[7;1m [0m| |[7;1m [0m| |[7;1m [0m| || 4
[32;1m[Board] [0m  -------------------
[32;1m[Board] [0m3 || |[7;1m [0m|[0;1mp[0m|[7;1m [0m| |[7;1m [0m| |[0;1mp[0m|| 3
[32;1m[Board] [0m  -------------------
[32;1m[Board] [0m2 ||[0;1mp[0m|[0;1mp[0m|[7;1m [0m|[0;1mp[0m|[0;1mp[0m|[0;1mp[0m|[0;1mp[0m|[0;1mr[0m|| 2
[32;1m[Board] [0m  -------------------
[32;1m[Board] [0m1 ||[0;1mr[0m|[0;1mk[0m|[0;1mb[0m|[0;1mQ[0m|[0;1mK[0m|[0;1mb[0m|[0;1mk[0m|[7;1m [0m|| 1
[32;1m[Board] [0m  -------------------
[32;1m[Board] [0m    a b c d e f g h
[32;1m[Board] [0m
[32;1m[Referee] [0mThis is the turn of the White player...
Input file: championship/lizzie-iii-shallowcyan/history.csv
Output file: championship/lizzie-iii-shallowcyan/move.csv
Turn of: white
Succesful move
h2h3
8 | R N B Q K B N R 
7 | P P P P P P P P 
6 | _ _ _ _ _ _ _ _ 
5 | _ _ _ _ _ _ _ _ 
4 | _ _ _ _ _ _ _ _ 
3 | _ _ _ _ _ _ _ P 
2 | P P P P P P P _ 
1 | R N B Q K B N R 
-------------------
  | A B C D E F G H 

Turn of: black
Succesful move
f7f6
8 | R N B Q K B N R 
7 | P P P P P _ P P 
6 | _ _ _ _ _ P _ _ 
5 | _ _ _ _ _ _ _ _ 
4 | _ _ _ _ _ _ _ _ 
3 | _ _ _ _ _ _ _ P 
2 | P P P P P P P _ 
1 | R N B Q K B N R 
-------------------
  | A B C D E F G H 

Turn of: white
Succesful move
c2c3
8 | R N B Q K B N R 
7 | P P P P P _ P P 
6 | _ _ _ _ _ P _ _ 
5 | _ _ _ _ _ _ _ _ 
4 | _ _ _ _ _ _ _ _ 
3 | _ _ P _ _ _ _ P 
2 | P P _ P P P P _ 
1 | R N B Q K B N R 
-------------------
  | A B C D E F G H 

Turn of: black
Succesful move
b7b5
8 | R N B Q K B N R 
7 | P _ P P P _ P P 
6 | _ _ _ _ _ P _ _ 
5 | _ P _ _ _ _ _ _ 
4 | _ _ _ _ _ _ _ _ 
3 | _ _ P _ _ _ _ P 
2 | P P _ P P P P _ 
1 | R N B Q K B N R 
-------------------
  | A B C D E F G H 

Turn of: white
Succesful move
h1h2
8 | R N B Q K B N R 
7 | P _ P P P _ P P 
6 | _ _ _ _ _ P _ _ 
5 | _ P _ _ _ _ _ _ 
4 | _ _ _ _ _ _ _ _ 
3 | _ _ P _ _ _ _ P 
2 | P P _ P P P P R 
1 | R N B Q K B N _ 
-------------------
  | A B C D E F G H 

Turn of: black
Succesful move
g7g6
8 | R N B Q K B N R 
7 | P _ P P P _ _ P 
6 | _ _ _ _ _ P P _ 
5 | _ P _ _ _ _ _ _ 
4 | _ _ _ _ _ _ _ _ 
3 | _ _ P _ _ _ _ P 
2 | P P _ P P P P R 
1 | R N B Q K B N _ 
-------------------
  | A B C D E F G H 

We are playing as White
Move history:
h2h3
f7f6
c2c3
b7b5
h1h2
g7g6
8 | R N B Q K B N R 
7 | P _ P P P _ _ P 
6 | _ _ _ _ _ P P _ 
5 | _ P _ _ _ _ _ _ 
4 | _ _ _ _ _ _ _ _ 
3 | _ _ P _ _ _ _ P 
2 | P P _ P P P P R 
1 | R N B Q K B N _ 
-------------------
  | A B C D E F G H 

It is white's turn to play.
AI's move: e2e4
Move written: e2e4
[32;1m[Game] [0mPlayer's error code: 0
[32;1m[Game] [0mChecking move validity...
[32;1m[Board] [0mInitializing board...
[32;1m[Board] [0mLoading history file `championship/lizzie-iii-shallowcyan/history.csv`...
[32;1m[Board] [0mLoaded 6 move(s).
[32;1m[Board] [0mLoading move file `championship/lizzie-iii-shallowcyan/move.csv`...
[32;1m[Board] [0mWhite player is playing e2 to e4.
[32;1m[Board] [0m
[32;1m[Board] [0m    a b c d e f g h 
[32;1m[Board] [0m  -------------------
[32;1m[Board] [0m8 ||[30;1mr[0m|[30;1mk[0m|[30;1mb[0m|[30;1mQ[0m|[30;1mK[0m|[30;1mb[0m|[30;1mk[0m|[30;1mr[0m|| 8
[32;1m[Board] [0m  -------------------
[32;1m[Board] [0m7 ||[30;1mp[0m|[7;1m [0m|[30;1mp[0m|[30;1mp[0m|[30;1mp[0m|[7;1m [0m| |[30;1mp[0m|| 7
[32;1m[Board] [0m  -------------------
[32;1m[Board] [0m6 ||[7;1m [0m| |[7;1m [0m| |[7;1m [0m|[30;1mp[0m|[30;1mp[0m| || 6
[32;1m[Board] [0m  -------------------
[32;1m[Board] [0m5 || |[30;1mp[0m| |[7;1m [0m| |[7;1m [0m| |[7;1m [0m|| 5
[32;1m[Board] [0m  -------------------
[32;1m[Board] [0m4 ||[7;1m [0m| |[7;1m [0m| |[0;1mp[0m| |[7;1m [0m| || 4
[32;1m[Board] [0m  -------------------
[32;1m[Board] [0m3 || |[7;1m [0m|[0;1mp[0m|[7;1m [0m| |[7;1m [0m| |[0;1mp[0m|| 3
[32;1m[Board] [0m  -------------------
[32;1m[Board] [0m2 ||[0;1mp[0m|[0;1mp[0m|[7;1m [0m|[0;1mp[0m|[7;1m [0m|[0;1mp[0m|[0;1mp[0m|[0;1mr[0m|| 2
[32;1m[Board] [0m  -------------------
[32;1m[Board] [0m1 ||[0;1mr[0m|[0;1mk[0m|[0;1mb[0m|[0;1mQ[0m|[0;1mK[0m|[0;1mb[0m|[0;1mk[0m|[7;1m [0m|| 1
[32;1m[Board] [0m  -------------------
[32;1m[Board] [0m    a b c d e f g h
[32;1m[Board] [0m
[32;1m[Referee] [0mThis is the turn of the Black player...
8 [100m ♖ [43m ♘ [100m ♗ [43m ♕ [100m ♔ [43m ♗ [100m ♘ [43m ♖ [40m
7 [43m ♙ [100m   [43m ♙ [100m ♙ [43m ♙ [100m   [43m   [100m ♙ [40m
6 [100m   [43m   [100m   [43m   [100m   [43m ♙ [100m ♙ [43m   [40m
5 [43m   [100m ♙ [43m   [100m   [43m   [100m   [43m   [100m   [40m
4 [100m   [43m   [100m   [43m   [100m ♟ [43m   [100m   [43m   [40m
3 [43m   [100m   [43m ♟ [100m   [43m   [100m   [43m   [100m ♟ [40m
2 [100m ♟ [43m ♟ [100m   [43m ♟ [100m   [43m ♟ [100m ♟ [43m ♜ [40m
1 [43m ♜ [100m ♞ [43m ♝ [100m ♛ [43m ♚ [100m ♝ [43m ♞ [100m   [40m
   a  b  c  d  e  f  g  h  
[32;1m[Game] [0mPlayer's error code: 0
[32;1m[Game] [0mChecking move validity...
[32;1m[Board] [0mInitializing board...
[32;1m[Board] [0mLoading history file `championship/lizzie-iii-shallowcyan/history.csv`...
[32;1m[Board] [0mLoaded 7 move(s).
[32;1m[Board] [0mLoading move file `championship/lizzie-iii-shallowcyan/move.csv`...
[32;1m[Board] [0mBlack player is playing a7 to a5.
[32;1m[Board] [0m
[32;1m[Board] [0m    a b c d e f g h 
[32;1m[Board] [0m  -------------------
[32;1m[Board] [0m8 ||[30;1mr[0m|[30;1mk[0m|[30;1mb[0m|[30;1mQ[0m|[30;1mK[0m|[30;1mb[0m|[30;1mk[0m|[30;1mr[0m|| 8
[32;1m[Board] [0m  -------------------
[32;1m[Board] [0m7 || |[7;1m [0m|[30;1mp[0m|[30;1mp[0m|[30;1mp[0m|[7;1m [0m| |[30;1mp[0m|| 7
[32;1m[Board] [0m  -------------------
[32;1m[Board] [0m6 ||[7;1m [0m| |[7;1m [0m| |[7;1m [0m|[30;1mp[0m|[30;1mp[0m| || 6
[32;1m[Board] [0m  -------------------
[32;1m[Board] [0m5 ||[30;1mp[0m|[30;1mp[0m| |[7;1m [0m| |[7;1m [0m| |[7;1m [0m|| 5
[32;1m[Board] [0m  -------------------
[32;1m[Board] [0m4 ||[7;1m [0m| |[7;1m [0m| |[0;1mp[0m| |[7;1m [0m| || 4
[32;1m[Board] [0m  -------------------
[32;1m[Board] [0m3 || |[7;1m [0m|[0;1mp[0m|[7;1m [0m| |[7;1m [0m| |[0;1mp[0m|| 3
[32;1m[Board] [0m  -------------------
[32;1m[Board] [0m2 ||[0;1mp[0m|[0;1mp[0m|[7;1m [0m|[0;1mp[0m|[7;1m [0m|[0;1mp[0m|[0;1mp[0m|[0;1mr[0m|| 2
[32;1m[Board] [0m  -------------------
[32;1m[Board] [0m1 ||[0;1mr[0m|[0;1mk[0m|[0;1mb[0m|[0;1mQ[0m|[0;1mK[0m|[0;1mb[0m|[0;1mk[0m|[7;1m [0m|| 1
[32;1m[Board] [0m  -------------------
[32;1m[Board] [0m    a b c d e f g h
[32;1m[Board] [0m
[32;1m[Referee] [0mThis is the turn of the White player...
Input file: championship/lizzie-iii-shallowcyan/history.csv
Output file: championship/lizzie-iii-shallowcyan/move.csv
Turn of: white
Succesful move
h2h3
8 | R N B Q K B N R 
7 | P P P P P P P P 
6 | _ _ _ _ _ _ _ _ 
5 | _ _ _ _ _ _ _ _ 
4 | _ _ _ _ _ _ _ _ 
3 | _ _ _ _ _ _ _ P 
2 | P P P P P P P _ 
1 | R N B Q K B N R 
-------------------
  | A B C D E F G H 

Turn of: black
Succesful move
f7f6
8 | R N B Q K B N R 
7 | P P P P P _ P P 
6 | _ _ _ _ _ P _ _ 
5 | _ _ _ _ _ _ _ _ 
4 | _ _ _ _ _ _ _ _ 
3 | _ _ _ _ _ _ _ P 
2 | P P P P P P P _ 
1 | R N B Q K B N R 
-------------------
  | A B C D E F G H 

Turn of: white
Succesful move
c2c3
8 | R N B Q K B N R 
7 | P P P P P _ P P 
6 | _ _ _ _ _ P _ _ 
5 | _ _ _ _ _ _ _ _ 
4 | _ _ _ _ _ _ _ _ 
3 | _ _ P _ _ _ _ P 
2 | P P _ P P P P _ 
1 | R N B Q K B N R 
-------------------
  | A B C D E F G H 

Turn of: black
Succesful move
b7b5
8 | R N B Q K B N R 
7 | P _ P P P _ P P 
6 | _ _ _ _ _ P _ _ 
5 | _ P _ _ _ _ _ _ 
4 | _ _ _ _ _ _ _ _ 
3 | _ _ P _ _ _ _ P 
2 | P P _ P P P P _ 
1 | R N B Q K B N R 
-------------------
  | A B C D E F G H 

Turn of: white
Succesful move
h1h2
8 | R N B Q K B N R 
7 | P _ P P P _ P P 
6 | _ _ _ _ _ P _ _ 
5 | _ P _ _ _ _ _ _ 
4 | _ _ _ _ _ _ _ _ 
3 | _ _ P _ _ _ _ P 
2 | P P _ P P P P R 
1 | R N B Q K B N _ 
-------------------
  | A B C D E F G H 

Turn of: black
Succesful move
g7g6
8 | R N B Q K B N R 
7 | P _ P P P _ _ P 
6 | _ _ _ _ _ P P _ 
5 | _ P _ _ _ _ _ _ 
4 | _ _ _ _ _ _ _ _ 
3 | _ _ P _ _ _ _ P 
2 | P P _ P P P P R 
1 | R N B Q K B N _ 
-------------------
  | A B C D E F G H 

Turn of: white
Succesful move
e2e4
8 | R N B Q K B N R 
7 | P _ P P P _ _ P 
6 | _ _ _ _ _ P P _ 
5 | _ P _ _ _ _ _ _ 
4 | _ _ _ _ P _ _ _ 
3 | _ _ P _ _ _ _ P 
2 | P P _ P _ P P R 
1 | R N B Q K B N _ 
-------------------
  | A B C D E F G H 

Turn of: black
Succesful move
a7a5
8 | R N B Q K B N R 
7 | _ _ P P P _ _ P 
6 | _ _ _ _ _ P P _ 
5 | P P _ _ _ _ _ _ 
4 | _ _ _ _ P _ _ _ 
3 | _ _ P _ _ _ _ P 
2 | P P _ P _ P P R 
1 | R N B Q K B N _ 
-------------------
  | A B C D E F G H 

We are playing as White
Move history:
h2h3
f7f6
c2c3
b7b5
h1h2
g7g6
e2e4
a7a5
8 | R N B Q K B N R 
7 | _ _ P P P _ _ P 
6 | _ _ _ _ _ P P _ 
5 | P P _ _ _ _ _ _ 
4 | _ _ _ _ P _ _ _ 
3 | _ _ P _ _ _ _ P 
2 | P P _ P _ P P R 
1 | R N B Q K B N _ 
-------------------
  | A B C D E F G H 

It is white's turn to play.
AI's move: g1e2
Move written: g1e2
[32;1m[Game] [0mPlayer's error code: 0
[32;1m[Game] [0mChecking move validity...
[32;1m[Board] [0mInitializing board...
[32;1m[Board] [0mLoading history file `championship/lizzie-iii-shallowcyan/history.csv`...
[32;1m[Board] [0mLoaded 8 move(s).
[32;1m[Board] [0mLoading move file `championship/lizzie-iii-shallowcyan/move.csv`...
[32;1m[Board] [0mWhite player is playing g1 to e2.
[32;1m[Board] [0m
[32;1m[Board] [0m    a b c d e f g h 
[32;1m[Board] [0m  -------------------
[32;1m[Board] [0m8 ||[30;1mr[0m|[30;1mk[0m|[30;1mb[0m|[30;1mQ[0m|[30;1mK[0m|[30;1mb[0m|[30;1mk[0m|[30;1mr[0m|| 8
[32;1m[Board] [0m  -------------------
[32;1m[Board] [0m7 || |[7;1m [0m|[30;1mp[0m|[30;1mp[0m|[30;1mp[0m|[7;1m [0m| |[30;1mp[0m|| 7
[32;1m[Board] [0m  -------------------
[32;1m[Board] [0m6 ||[7;1m [0m| |[7;1m [0m| |[7;1m [0m|[30;1mp[0m|[30;1mp[0m| || 6
[32;1m[Board] [0m  -------------------
[32;1m[Board] [0m5 ||[30;1mp[0m|[30;1mp[0m| |[7;1m [0m| |[7;1m [0m| |[7;1m [0m|| 5
[32;1m[Board] [0m  -------------------
[32;1m[Board] [0m4 ||[7;1m [0m| |[7;1m [0m| |[0;1mp[0m| |[7;1m [0m| || 4
[32;1m[Board] [0m  -------------------
[32;1m[Board] [0m3 || |[7;1m [0m|[0;1mp[0m|[7;1m [0m| |[7;1m [0m| |[0;1mp[0m|| 3
[32;1m[Board] [0m  -------------------
[32;1m[Board] [0m2 ||[0;1mp[0m|[0;1mp[0m|[7;1m [0m|[0;1mp[0m|[0;1mk[0m|[0;1mp[0m|[0;1mp[0m|[0;1mr[0m|| 2
[32;1m[Board] [0m  -------------------
[32;1m[Board] [0m1 ||[0;1mr[0m|[0;1mk[0m|[0;1mb[0m|[0;1mQ[0m|[0;1mK[0m|[0;1mb[0m| |[7;1m [0m|| 1
[32;1m[Board] [0m  -------------------
[32;1m[Board] [0m    a b c d e f g h
[32;1m[Board] [0m
[32;1m[Referee] [0mThis is the turn of the Black player...
8 [100m ♖ [43m ♘ [100m ♗ [43m ♕ [100m ♔ [43m ♗ [100m ♘ [43m ♖ [40m
7 [43m   [100m   [43m ♙ [100m ♙ [43m ♙ [100m   [43m   [100m ♙ [40m
6 [100m   [43m   [100m   [43m   [100m   [43m ♙ [100m ♙ [43m   [40m
5 [43m ♙ [100m ♙ [43m   [100m   [43m   [100m   [43m   [100m   [40m
4 [100m   [43m   [100m   [43m   [100m ♟ [43m   [100m   [43m   [40m
3 [43m   [100m   [43m ♟ [100m   [43m   [100m   [43m   [100m ♟ [40m
2 [100m ♟ [43m ♟ [100m   [43m ♟ [100m ♞ [43m ♟ [100m ♟ [43m ♜ [40m
1 [43m ♜ [100m ♞ [43m ♝ [100m ♛ [43m ♚ [100m ♝ [43m   [100m   [40m
   a  b  c  d  e  f  g  h  
[32;1m[Game] [0mPlayer's error code: 0
[32;1m[Game] [0mChecking move validity...
[32;1m[Board] [0mInitializing board...
[32;1m[Board] [0mLoading history file `championship/lizzie-iii-shallowcyan/history.csv`...
[32;1m[Board] [0mLoaded 9 move(s).
[32;1m[Board] [0mLoading move file `championship/lizzie-iii-shallowcyan/move.csv`...
[32;1m[Board] [0mBlack player is playing e7 to e5.
[32;1m[Board] [0m
[32;1m[Board] [0m    a b c d e f g h 
[32;1m[Board] [0m  -------------------
[32;1m[Board] [0m8 ||[30;1mr[0m|[30;1mk[0m|[30;1mb[0m|[30;1mQ[0m|[30;1mK[0m|[30;1mb[0m|[30;1mk[0m|[30;1mr[0m|| 8
[32;1m[Board] [0m  -------------------
[32;1m[Board] [0m7 || |[7;1m [0m|[30;1mp[0m|[30;1mp[0m| |[7;1m [0m| |[30;1mp[0m|| 7
[32;1m[Board] [0m  -------------------
[32;1m[Board] [0m6 ||[7;1m [0m| |[7;1m [0m| |[7;1m [0m|[30;1mp[0m|[30;1mp[0m| || 6
[32;1m[Board] [0m  -------------------
[32;1m[Board] [0m5 ||[30;1mp[0m|[30;1mp[0m| |[7;1m [0m|[30;1mp[0m|[7;1m [0m| |[7;1m [0m|| 5
[32;1m[Board] [0m  -------------------
[32;1m[Board] [0m4 ||[7;1m [0m| |[7;1m [0m| |[0;1mp[0m| |[7;1m [0m| || 4
[32;1m[Board] [0m  -------------------
[32;1m[Board] [0m3 || |[7;1m [0m|[0;1mp[0m|[7;1m [0m| |[7;1m [0m| |[0;1mp[0m|| 3
[32;1m[Board] [0m  -------------------
[32;1m[Board] [0m2 ||[0;1mp[0m|[0;1mp[0m|[7;1m [0m|[0;1mp[0m|[0;1mk[0m|[0;1mp[0m|[0;1mp[0m|[0;1mr[0m|| 2
[32;1m[Board] [0m  -------------------
[32;1m[Board] [0m1 ||[0;1mr[0m|[0;1mk[0m|[0;1mb[0m|[0;1mQ[0m|[0;1mK[0m|[0;1mb[0m| |[7;1m [0m|| 1
[32;1m[Board] [0m  -------------------
[32;1m[Board] [0m    a b c d e f g h
[32;1m[Board] [0m
[32;1m[Referee] [0mThis is the turn of the White player...
Input file: championship/lizzie-iii-shallowcyan/history.csv
Output file: championship/lizzie-iii-shallowcyan/move.csv
Turn of: white
Succesful move
h2h3
8 | R N B Q K B N R 
7 | P P P P P P P P 
6 | _ _ _ _ _ _ _ _ 
5 | _ _ _ _ _ _ _ _ 
4 | _ _ _ _ _ _ _ _ 
3 | _ _ _ _ _ _ _ P 
2 | P P P P P P P _ 
1 | R N B Q K B N R 
-------------------
  | A B C D E F G H 

Turn of: black
Succesful move
f7f6
8 | R N B Q K B N R 
7 | P P P P P _ P P 
6 | _ _ _ _ _ P _ _ 
5 | _ _ _ _ _ _ _ _ 
4 | _ _ _ _ _ _ _ _ 
3 | _ _ _ _ _ _ _ P 
2 | P P P P P P P _ 
1 | R N B Q K B N R 
-------------------
  | A B C D E F G H 

Turn of: white
Succesful move
c2c3
8 | R N B Q K B N R 
7 | P P P P P _ P P 
6 | _ _ _ _ _ P _ _ 
5 | _ _ _ _ _ _ _ _ 
4 | _ _ _ _ _ _ _ _ 
3 | _ _ P _ _ _ _ P 
2 | P P _ P P P P _ 
1 | R N B Q K B N R 
-------------------
  | A B C D E F G H 

Turn of: black
Succesful move
b7b5
8 | R N B Q K B N R 
7 | P _ P P P _ P P 
6 | _ _ _ _ _ P _ _ 
5 | _ P _ _ _ _ _ _ 
4 | _ _ _ _ _ _ _ _ 
3 | _ _ P _ _ _ _ P 
2 | P P _ P P P P _ 
1 | R N B Q K B N R 
-------------------
  | A B C D E F G H 

Turn of: white
Succesful move
h1h2
8 | R N B Q K B N R 
7 | P _ P P P _ P P 
6 | _ _ _ _ _ P _ _ 
5 | _ P _ _ _ _ _ _ 
4 | _ _ _ _ _ _ _ _ 
3 | _ _ P _ _ _ _ P 
2 | P P _ P P P P R 
1 | R N B Q K B N _ 
-------------------
  | A B C D E F G H 

Turn of: black
Succesful move
g7g6
8 | R N B Q K B N R 
7 | P _ P P P _ _ P 
6 | _ _ _ _ _ P P _ 
5 | _ P _ _ _ _ _ _ 
4 | _ _ _ _ _ _ _ _ 
3 | _ _ P _ _ _ _ P 
2 | P P _ P P P P R 
1 | R N B Q K B N _ 
-------------------
  | A B C D E F G H 

Turn of: white
Succesful move
e2e4
8 | R N B Q K B N R 
7 | P _ P P P _ _ P 
6 | _ _ _ _ _ P P _ 
5 | _ P _ _ _ _ _ _ 
4 | _ _ _ _ P _ _ _ 
3 | _ _ P _ _ _ _ P 
2 | P P _ P _ P P R 
1 | R N B Q K B N _ 
-------------------
  | A B C D E F G H 

Turn of: black
Succesful move
a7a5
8 | R N B Q K B N R 
7 | _ _ P P P _ _ P 
6 | _ _ _ _ _ P P _ 
5 | P P _ _ _ _ _ _ 
4 | _ _ _ _ P _ _ _ 
3 | _ _ P _ _ _ _ P 
2 | P P _ P _ P P R 
1 | R N B Q K B N _ 
-------------------
  | A B C D E F G H 

Turn of: white
Succesful move
g1e2
8 | R N B Q K B N R 
7 | _ _ P P P _ _ P 
6 | _ _ _ _ _ P P _ 
5 | P P _ _ _ _ _ _ 
4 | _ _ _ _ P _ _ _ 
3 | _ _ P _ _ _ _ P 
2 | P P _ P N P P R 
1 | R N B Q K B _ _ 
-------------------
  | A B C D E F G H 

Turn of: black
Succesful move
e7e5
8 | R N B Q K B N R 
7 | _ _ P P _ _ _ P 
6 | _ _ _ _ _ P P _ 
5 | P P _ _ P _ _ _ 
4 | _ _ _ _ P _ _ _ 
3 | _ _ P _ _ _ _ P 
2 | P P _ P N P P R 
1 | R N B Q K B _ _ 
-------------------
  | A B C D E F G H 

We are playing as White
Move history:
h2h3
f7f6
c2c3
b7b5
h1h2
g7g6
e2e4
a7a5
g1e2
e7e5
8 | R N B Q K B N R 
7 | _ _ P P _ _ _ P 
6 | _ _ _ _ _ P P _ 
5 | P P _ _ P _ _ _ 
4 | _ _ _ _ P _ _ _ 
3 | _ _ P _ _ _ _ P 
2 | P P _ P N P P R 
1 | R N B Q K B _ _ 
-------------------
  | A B C D E F G H 

It is white's turn to play.
AI's move: g2g3
Move written: g2g3
[32;1m[Game] [0mPlayer's error code: 0
[32;1m[Game] [0mChecking move validity...
[32;1m[Board] [0mInitializing board...
[32;1m[Board] [0mLoading history file `championship/lizzie-iii-shallowcyan/history.csv`...
[32;1m[Board] [0mLoaded 10 move(s).
[32;1m[Board] [0mLoading move file `championship/lizzie-iii-shallowcyan/move.csv`...
[32;1m[Board] [0mWhite player is playing g2 to g3.
[32;1m[Board] [0m
[32;1m[Board] [0m    a b c d e f g h 
[32;1m[Board] [0m  -------------------
[32;1m[Board] [0m8 ||[30;1mr[0m|[30;1mk[0m|[30;1mb[0m|[30;1mQ[0m|[30;1mK[0m|[30;1mb[0m|[30;1mk[0m|[30;1mr[0m|| 8
[32;1m[Board] [0m  -------------------
[32;1m[Board] [0m7 || |[7;1m [0m|[30;1mp[0m|[30;1mp[0m| |[7;1m [0m| |[30;1mp[0m|| 7
[32;1m[Board] [0m  -------------------
[32;1m[Board] [0m6 ||[7;1m [0m| |[7;1m [0m| |[7;1m [0m|[30;1mp[0m|[30;1mp[0m| || 6
[32;1m[Board] [0m  -------------------
[32;1m[Board] [0m5 ||[30;1mp[0m|[30;1mp[0m| |[7;1m [0m|[30;1mp[0m|[7;1m [0m| |[7;1m [0m|| 5
[32;1m[Board] [0m  -------------------
[32;1m[Board] [0m4 ||[7;1m [0m| |[7;1m [0m| |[0;1mp[0m| |[7;1m [0m| || 4
[32;1m[Board] [0m  -------------------
[32;1m[Board] [0m3 || |[7;1m [0m|[0;1mp[0m|[7;1m [0m| |[7;1m [0m|[0;1mp[0m|[0;1mp[0m|| 3
[32;1m[Board] [0m  -------------------
[32;1m[Board] [0m2 ||[0;1mp[0m|[0;1mp[0m|[7;1m [0m|[0;1mp[0m|[0;1mk[0m|[0;1mp[0m|[7;1m [0m|[0;1mr[0m|| 2
[32;1m[Board] [0m  -------------------
[32;1m[Board] [0m1 ||[0;1mr[0m|[0;1mk[0m|[0;1mb[0m|[0;1mQ[0m|[0;1mK[0m|[0;1mb[0m| |[7;1m [0m|| 1
[32;1m[Board] [0m  -------------------
[32;1m[Board] [0m    a b c d e f g h
[32;1m[Board] [0m
[32;1m[Referee] [0mThis is the turn of the Black player...
8 [100m ♖ [43m ♘ [100m ♗ [43m ♕ [100m ♔ [43m ♗ [100m ♘ [43m ♖ [40m
7 [43m   [100m   [43m ♙ [100m ♙ [43m   [100m   [43m   [100m ♙ [40m
6 [100m   [43m   [100m   [43m   [100m   [43m ♙ [100m ♙ [43m   [40m
5 [43m ♙ [100m ♙ [43m   [100m   [43m ♙ [100m   [43m   [100m   [40m
4 [100m   [43m   [100m   [43m   [100m ♟ [43m   [100m   [43m   [40m
3 [43m   [100m   [43m ♟ [100m   [43m   [100m   [43m ♟ [100m ♟ [40m
2 [100m ♟ [43m ♟ [100m   [43m ♟ [100m ♞ [43m ♟ [100m   [43m ♜ [40m
1 [43m ♜ [100m ♞ [43m ♝ [100m ♛ [43m ♚ [100m ♝ [43m   [100m   [40m
   a  b  c  d  e  f  g  h  
[32;1m[Game] [0mPlayer's error code: 0
[32;1m[Game] [0mChecking move validity...
[32;1m[Board] [0mInitializing board...
[32;1m[Board] [0mLoading history file `championship/lizzie-iii-shallowcyan/history.csv`...
[32;1m[Board] [0mLoaded 11 move(s).
[32;1m[Board] [0mLoading move file `championship/lizzie-iii-shallowcyan/move.csv`...
[32;1m[Board] [0mBlack player is playing c8 to a6.
[32;1m[Board] [0m
[32;1m[Board] [0m    a b c d e f g h 
[32;1m[Board] [0m  -------------------
[32;1m[Board] [0m8 ||[30;1mr[0m|[30;1mk[0m|[7;1m [0m|[30;1mQ[0m|[30;1mK[0m|[30;1mb[0m|[30;1mk[0m|[30;1mr[0m|| 8
[32;1m[Board] [0m  -------------------
[32;1m[Board] [0m7 || |[7;1m [0m|[30;1mp[0m|[30;1mp[0m| |[7;1m [0m| |[30;1mp[0m|| 7
[32;1m[Board] [0m  -------------------
[32;1m[Board] [0m6 ||[30;1mb[0m| |[7;1m [0m| |[7;1m [0m|[30;1mp[0m|[30;1mp[0m| || 6
[32;1m[Board] [0m  -------------------
[32;1m[Board] [0m5 ||[30;1mp[0m|[30;1mp[0m| |[7;1m [0m|[30;1mp[0m|[7;1m [0m| |[7;1m [0m|| 5
[32;1m[Board] [0m  -------------------
[32;1m[Board] [0m4 ||[7;1m [0m| |[7;1m [0m| |[0;1mp[0m| |[7;1m [0m| || 4
[32;1m[Board] [0m  -------------------
[32;1m[Board] [0m3 || |[7;1m [0m|[0;1mp[0m|[7;1m [0m| |[7;1m [0m|[0;1mp[0m|[0;1mp[0m|| 3
[32;1m[Board] [0m  -------------------
[32;1m[Board] [0m2 ||[0;1mp[0m|[0;1mp[0m|[7;1m [0m|[0;1mp[0m|[0;1mk[0m|[0;1mp[0m|[7;1m [0m|[0;1mr[0m|| 2
[32;1m[Board] [0m  -------------------
[32;1m[Board] [0m1 ||[0;1mr[0m|[0;1mk[0m|[0;1mb[0m|[0;1mQ[0m|[0;1mK[0m|[0;1mb[0m| |[7;1m [0m|| 1
[32;1m[Board] [0m  -------------------
[32;1m[Board] [0m    a b c d e f g h
[32;1m[Board] [0m
[32;1m[Referee] [0mThis is the turn of the White player...
Input file: championship/lizzie-iii-shallowcyan/history.csv
Output file: championship/lizzie-iii-shallowcyan/move.csv
Turn of: white
Succesful move
h2h3
8 | R N B Q K B N R 
7 | P P P P P P P P 
6 | _ _ _ _ _ _ _ _ 
5 | _ _ _ _ _ _ _ _ 
4 | _ _ _ _ _ _ _ _ 
3 | _ _ _ _ _ _ _ P 
2 | P P P P P P P _ 
1 | R N B Q K B N R 
-------------------
  | A B C D E F G H 

Turn of: black
Succesful move
f7f6
8 | R N B Q K B N R 
7 | P P P P P _ P P 
6 | _ _ _ _ _ P _ _ 
5 | _ _ _ _ _ _ _ _ 
4 | _ _ _ _ _ _ _ _ 
3 | _ _ _ _ _ _ _ P 
2 | P P P P P P P _ 
1 | R N B Q K B N R 
-------------------
  | A B C D E F G H 

Turn of: white
Succesful move
c2c3
8 | R N B Q K B N R 
7 | P P P P P _ P P 
6 | _ _ _ _ _ P _ _ 
5 | _ _ _ _ _ _ _ _ 
4 | _ _ _ _ _ _ _ _ 
3 | _ _ P _ _ _ _ P 
2 | P P _ P P P P _ 
1 | R N B Q K B N R 
-------------------
  | A B C D E F G H 

Turn of: black
Succesful move
b7b5
8 | R N B Q K B N R 
7 | P _ P P P _ P P 
6 | _ _ _ _ _ P _ _ 
5 | _ P _ _ _ _ _ _ 
4 | _ _ _ _ _ _ _ _ 
3 | _ _ P _ _ _ _ P 
2 | P P _ P P P P _ 
1 | R N B Q K B N R 
-------------------
  | A B C D E F G H 

Turn of: white
Succesful move
h1h2
8 | R N B Q K B N R 
7 | P _ P P P _ P P 
6 | _ _ _ _ _ P _ _ 
5 | _ P _ _ _ _ _ _ 
4 | _ _ _ _ _ _ _ _ 
3 | _ _ P _ _ _ _ P 
2 | P P _ P P P P R 
1 | R N B Q K B N _ 
-------------------
  | A B C D E F G H 

Turn of: black
Succesful move
g7g6
8 | R N B Q K B N R 
7 | P _ P P P _ _ P 
6 | _ _ _ _ _ P P _ 
5 | _ P _ _ _ _ _ _ 
4 | _ _ _ _ _ _ _ _ 
3 | _ _ P _ _ _ _ P 
2 | P P _ P P P P R 
1 | R N B Q K B N _ 
-------------------
  | A B C D E F G H 

Turn of: white
Succesful move
e2e4
8 | R N B Q K B N R 
7 | P _ P P P _ _ P 
6 | _ _ _ _ _ P P _ 
5 | _ P _ _ _ _ _ _ 
4 | _ _ _ _ P _ _ _ 
3 | _ _ P _ _ _ _ P 
2 | P P _ P _ P P R 
1 | R N B Q K B N _ 
-------------------
  | A B C D E F G H 

Turn of: black
Succesful move
a7a5
8 | R N B Q K B N R 
7 | _ _ P P P _ _ P 
6 | _ _ _ _ _ P P _ 
5 | P P _ _ _ _ _ _ 
4 | _ _ _ _ P _ _ _ 
3 | _ _ P _ _ _ _ P 
2 | P P _ P _ P P R 
1 | R N B Q K B N _ 
-------------------
  | A B C D E F G H 

Turn of: white
Succesful move
g1e2
8 | R N B Q K B N R 
7 | _ _ P P P _ _ P 
6 | _ _ _ _ _ P P _ 
5 | P P _ _ _ _ _ _ 
4 | _ _ _ _ P _ _ _ 
3 | _ _ P _ _ _ _ P 
2 | P P _ P N P P R 
1 | R N B Q K B _ _ 
-------------------
  | A B C D E F G H 

Turn of: black
Succesful move
e7e5
8 | R N B Q K B N R 
7 | _ _ P P _ _ _ P 
6 | _ _ _ _ _ P P _ 
5 | P P _ _ P _ _ _ 
4 | _ _ _ _ P _ _ _ 
3 | _ _ P _ _ _ _ P 
2 | P P _ P N P P R 
1 | R N B Q K B _ _ 
-------------------
  | A B C D E F G H 

Turn of: white
Succesful move
g2g3
8 | R N B Q K B N R 
7 | _ _ P P _ _ _ P 
6 | _ _ _ _ _ P P _ 
5 | P P _ _ P _ _ _ 
4 | _ _ _ _ P _ _ _ 
3 | _ _ P _ _ _ P P 
2 | P P _ P N P _ R 
1 | R N B Q K B _ _ 
-------------------
  | A B C D E F G H 

Turn of: black
Succesful move
c8a6
8 | R N _ Q K B N R 
7 | _ _ P P _ _ _ P 
6 | B _ _ _ _ P P _ 
5 | P P _ _ P _ _ _ 
4 | _ _ _ _ P _ _ _ 
3 | _ _ P _ _ _ P P 
2 | P P _ P N P _ R 
1 | R N B Q K B _ _ 
-------------------
  | A B C D E F G H 

We are playing as White
Move history:
h2h3
f7f6
c2c3
b7b5
h1h2
g7g6
e2e4
a7a5
g1e2
e7e5
g2g3
c8a6
8 | R N _ Q K B N R 
7 | _ _ P P _ _ _ P 
6 | B _ _ _ _ P P _ 
5 | P P _ _ P _ _ _ 
4 | _ _ _ _ P _ _ _ 
3 | _ _ P _ _ _ P P 
2 | P P _ P N P _ R 
1 | R N B Q K B _ _ 
-------------------
  | A B C D E F G H 

It is white's turn to play.
AI's move: f2f3
Move written: f2f3
[32;1m[Game] [0mPlayer's error code: 0
[32;1m[Game] [0mChecking move validity...
[32;1m[Board] [0mInitializing board...
[32;1m[Board] [0mLoading history file `championship/lizzie-iii-shallowcyan/history.csv`...
[32;1m[Board] [0mLoaded 12 move(s).
[32;1m[Board] [0mLoading move file `championship/lizzie-iii-shallowcyan/move.csv`...
[32;1m[Board] [0mWhite player is playing f2 to f3.
[32;1m[Board] [0m
[32;1m[Board] [0m    a b c d e f g h 
[32;1m[Board] [0m  -------------------
[32;1m[Board] [0m8 ||[30;1mr[0m|[30;1mk[0m|[7;1m [0m|[30;1mQ[0m|[30;1mK[0m|[30;1mb[0m|[30;1mk[0m|[30;1mr[0m|| 8
[32;1m[Board] [0m  -------------------
[32;1m[Board] [0m7 || |[7;1m [0m|[30;1mp[0m|[30;1mp[0m| |[7;1m [0m| |[30;1mp[0m|| 7
[32;1m[Board] [0m  -------------------
[32;1m[Board] [0m6 ||[30;1mb[0m| |[7;1m [0m| |[7;1m [0m|[30;1mp[0m|[30;1mp[0m| || 6
[32;1m[Board] [0m  -------------------
[32;1m[Board] [0m5 ||[30;1mp[0m|[30;1mp[0m| |[7;1m [0m|[30;1mp[0m|[7;1m [0m| |[7;1m [0m|| 5
[32;1m[Board] [0m  -------------------
[32;1m[Board] [0m4 ||[7;1m [0m| |[7;1m [0m| |[0;1mp[0m| |[7;1m [0m| || 4
[32;1m[Board] [0m  -------------------
[32;1m[Board] [0m3 || |[7;1m [0m|[0;1mp[0m|[7;1m [0m| |[0;1mp[0m|[0;1mp[0m|[0;1mp[0m|| 3
[32;1m[Board] [0m  -------------------
[32;1m[Board] [0m2 ||[0;1mp[0m|[0;1mp[0m|[7;1m [0m|[0;1mp[0m|[0;1mk[0m| |[7;1m [0m|[0;1mr[0m|| 2
[32;1m[Board] [0m  -------------------
[32;1m[Board] [0m1 ||[0;1mr[0m|[0;1mk[0m|[0;1mb[0m|[0;1mQ[0m|[0;1mK[0m|[0;1mb[0m| |[7;1m [0m|| 1
[32;1m[Board] [0m  -------------------
[32;1m[Board] [0m    a b c d e f g h
[32;1m[Board] [0m
[32;1m[Referee] [0mThis is the turn of the Black player...
8 [100m ♖ [43m ♘ [100m   [43m ♕ [100m ♔ [43m ♗ [100m ♘ [43m ♖ [40m
7 [43m   [100m   [43m ♙ [100m ♙ [43m   [100m   [43m   [100m ♙ [40m
6 [100m ♗ [43m   [100m   [43m   [100m   [43m ♙ [100m ♙ [43m   [40m
5 [43m ♙ [100m ♙ [43m   [100m   [43m ♙ [100m   [43m   [100m   [40m
4 [100m   [43m   [100m   [43m   [100m ♟ [43m   [100m   [43m   [40m
3 [43m   [100m   [43m ♟ [100m   [43m   [100m ♟ [43m ♟ [100m ♟ [40m
2 [100m ♟ [43m ♟ [100m   [43m ♟ [100m ♞ [43m   [100m   [43m ♜ [40m
1 [43m ♜ [100m ♞ [43m ♝ [100m ♛ [43m ♚ [100m ♝ [43m   [100m   [40m
   a  b  c  d  e  f  g  h  
[32;1m[Game] [0mPlayer's error code: 0
[32;1m[Game] [0mChecking move validity...
[32;1m[Board] [0mInitializing board...
[32;1m[Board] [0mLoading history file `championship/lizzie-iii-shallowcyan/history.csv`...
[32;1m[Board] [0mLoaded 13 move(s).
[32;1m[Board] [0mLoading move file `championship/lizzie-iii-shallowcyan/move.csv`...
[32;1m[Board] [0mBlack player is playing b5 to b4.
[32;1m[Board] [0m
[32;1m[Board] [0m    a b c d e f g h 
[32;1m[Board] [0m  -------------------
[32;1m[Board] [0m8 ||[30;1mr[0m|[30;1mk[0m|[7;1m [0m|[30;1mQ[0m|[30;1mK[0m|[30;1mb[0m|[30;1mk[0m|[30;1mr[0m|| 8
[32;1m[Board] [0m  -------------------
[32;1m[Board] [0m7 || |[7;1m [0m|[30;1mp[0m|[30;1mp[0m| |[7;1m [0m| |[30;1mp[0m|| 7
[32;1m[Board] [0m  -------------------
[32;1m[Board] [0m6 ||[30;1mb[0m| |[7;1m [0m| |[7;1m [0m|[30;1mp[0m|[30;1mp[0m| || 6
[32;1m[Board] [0m  -------------------
[32;1m[Board] [0m5 ||[30;1mp[0m|[7;1m [0m| |[7;1m [0m|[30;1mp[0m|[7;1m [0m| |[7;1m [0m|| 5
[32;1m[Board] [0m  -------------------
[32;1m[Board] [0m4 ||[7;1m [0m|[30;1mp[0m|[7;1m [0m| |[0;1mp[0m| |[7;1m [0m| || 4
[32;1m[Board] [0m  -------------------
[32;1m[Board] [0m3 || |[7;1m [0m|[0;1mp[0m|[7;1m [0m| |[0;1mp[0m|[0;1mp[0m|[0;1mp[0m|| 3
[32;1m[Board] [0m  -------------------
[32;1m[Board] [0m2 ||[0;1mp[0m|[0;1mp[0m|[7;1m [0m|[0;1mp[0m|[0;1mk[0m| |[7;1m [0m|[0;1mr[0m|| 2
[32;1m[Board] [0m  -------------------
[32;1m[Board] [0m1 ||[0;1mr[0m|[0;1mk[0m|[0;1mb[0m|[0;1mQ[0m|[0;1mK[0m|[0;1mb[0m| |[7;1m [0m|| 1
[32;1m[Board] [0m  -------------------
[32;1m[Board] [0m    a b c d e f g h
[32;1m[Board] [0m
[32;1m[Referee] [0mThis is the turn of the White player...
Input file: championship/lizzie-iii-shallowcyan/history.csv
Output file: championship/lizzie-iii-shallowcyan/move.csv
Turn of: white
Succesful move
h2h3
8 | R N B Q K B N R 
7 | P P P P P P P P 
6 | _ _ _ _ _ _ _ _ 
5 | _ _ _ _ _ _ _ _ 
4 | _ _ _ _ _ _ _ _ 
3 | _ _ _ _ _ _ _ P 
2 | P P P P P P P _ 
1 | R N B Q K B N R 
-------------------
  | A B C D E F G H 

Turn of: black
Succesful move
f7f6
8 | R N B Q K B N R 
7 | P P P P P _ P P 
6 | _ _ _ _ _ P _ _ 
5 | _ _ _ _ _ _ _ _ 
4 | _ _ _ _ _ _ _ _ 
3 | _ _ _ _ _ _ _ P 
2 | P P P P P P P _ 
1 | R N B Q K B N R 
-------------------
  | A B C D E F G H 

Turn of: white
Succesful move
c2c3
8 | R N B Q K B N R 
7 | P P P P P _ P P 
6 | _ _ _ _ _ P _ _ 
5 | _ _ _ _ _ _ _ _ 
4 | _ _ _ _ _ _ _ _ 
3 | _ _ P _ _ _ _ P 
2 | P P _ P P P P _ 
1 | R N B Q K B N R 
-------------------
  | A B C D E F G H 

Turn of: black
Succesful move
b7b5
8 | R N B Q K B N R 
7 | P _ P P P _ P P 
6 | _ _ _ _ _ P _ _ 
5 | _ P _ _ _ _ _ _ 
4 | _ _ _ _ _ _ _ _ 
3 | _ _ P _ _ _ _ P 
2 | P P _ P P P P _ 
1 | R N B Q K B N R 
-------------------
  | A B C D E F G H 

Turn of: white
Succesful move
h1h2
8 | R N B Q K B N R 
7 | P _ P P P _ P P 
6 | _ _ _ _ _ P _ _ 
5 | _ P _ _ _ _ _ _ 
4 | _ _ _ _ _ _ _ _ 
3 | _ _ P _ _ _ _ P 
2 | P P _ P P P P R 
1 | R N B Q K B N _ 
-------------------
  | A B C D E F G H 

Turn of: black
Succesful move
g7g6
8 | R N B Q K B N R 
7 | P _ P P P _ _ P 
6 | _ _ _ _ _ P P _ 
5 | _ P _ _ _ _ _ _ 
4 | _ _ _ _ _ _ _ _ 
3 | _ _ P _ _ _ _ P 
2 | P P _ P P P P R 
1 | R N B Q K B N _ 
-------------------
  | A B C D E F G H 

Turn of: white
Succesful move
e2e4
8 | R N B Q K B N R 
7 | P _ P P P _ _ P 
6 | _ _ _ _ _ P P _ 
5 | _ P _ _ _ _ _ _ 
4 | _ _ _ _ P _ _ _ 
3 | _ _ P _ _ _ _ P 
2 | P P _ P _ P P R 
1 | R N B Q K B N _ 
-------------------
  | A B C D E F G H 

Turn of: black
Succesful move
a7a5
8 | R N B Q K B N R 
7 | _ _ P P P _ _ P 
6 | _ _ _ _ _ P P _ 
5 | P P _ _ _ _ _ _ 
4 | _ _ _ _ P _ _ _ 
3 | _ _ P _ _ _ _ P 
2 | P P _ P _ P P R 
1 | R N B Q K B N _ 
-------------------
  | A B C D E F G H 

Turn of: white
Succesful move
g1e2
8 | R N B Q K B N R 
7 | _ _ P P P _ _ P 
6 | _ _ _ _ _ P P _ 
5 | P P _ _ _ _ _ _ 
4 | _ _ _ _ P _ _ _ 
3 | _ _ P _ _ _ _ P 
2 | P P _ P N P P R 
1 | R N B Q K B _ _ 
-------------------
  | A B C D E F G H 

Turn of: black
Succesful move
e7e5
8 | R N B Q K B N R 
7 | _ _ P P _ _ _ P 
6 | _ _ _ _ _ P P _ 
5 | P P _ _ P _ _ _ 
4 | _ _ _ _ P _ _ _ 
3 | _ _ P _ _ _ _ P 
2 | P P _ P N P P R 
1 | R N B Q K B _ _ 
-------------------
  | A B C D E F G H 

Turn of: white
Succesful move
g2g3
8 | R N B Q K B N R 
7 | _ _ P P _ _ _ P 
6 | _ _ _ _ _ P P _ 
5 | P P _ _ P _ _ _ 
4 | _ _ _ _ P _ _ _ 
3 | _ _ P _ _ _ P P 
2 | P P _ P N P _ R 
1 | R N B Q K B _ _ 
-------------------
  | A B C D E F G H 

Turn of: black
Succesful move
c8a6
8 | R N _ Q K B N R 
7 | _ _ P P _ _ _ P 
6 | B _ _ _ _ P P _ 
5 | P P _ _ P _ _ _ 
4 | _ _ _ _ P _ _ _ 
3 | _ _ P _ _ _ P P 
2 | P P _ P N P _ R 
1 | R N B Q K B _ _ 
-------------------
  | A B C D E F G H 

Turn of: white
Succesful move
f2f3
8 | R N _ Q K B N R 
7 | _ _ P P _ _ _ P 
6 | B _ _ _ _ P P _ 
5 | P P _ _ P _ _ _ 
4 | _ _ _ _ P _ _ _ 
3 | _ _ P _ _ P P P 
2 | P P _ P N _ _ R 
1 | R N B Q K B _ _ 
-------------------
  | A B C D E F G H 

Turn of: black
Succesful move
b5b4
8 | R N _ Q K B N R 
7 | _ _ P P _ _ _ P 
6 | B _ _ _ _ P P _ 
5 | P _ _ _ P _ _ _ 
4 | _ P _ _ P _ _ _ 
3 | _ _ P _ _ P P P 
2 | P P _ P N _ _ R 
1 | R N B Q K B _ _ 
-------------------
  | A B C D E F G H 

We are playing as White
Move history:
h2h3
f7f6
c2c3
b7b5
h1h2
g7g6
e2e4
a7a5
g1e2
e7e5
g2g3
c8a6
f2f3
b5b4
8 | R N _ Q K B N R 
7 | _ _ P P _ _ _ P 
6 | B _ _ _ _ P P _ 
5 | P _ _ _ P _ _ _ 
4 | _ P _ _ P _ _ _ 
3 | _ _ P _ _ P P P 
2 | P P _ P N _ _ R 
1 | R N B Q K B _ _ 
-------------------
  | A B C D E F G H 

It is white's turn to play.
AI's move: a2a4
Move written: a2a4
[32;1m[Game] [0mPlayer's error code: 0
[32;1m[Game] [0mChecking move validity...
[32;1m[Board] [0mInitializing board...
[32;1m[Board] [0mLoading history file `championship/lizzie-iii-shallowcyan/history.csv`...
[32;1m[Board] [0mLoaded 14 move(s).
[32;1m[Board] [0mLoading move file `championship/lizzie-iii-shallowcyan/move.csv`...
[32;1m[Board] [0mWhite player is playing a2 to a4.
[32;1m[Board] [0m
[32;1m[Board] [0m    a b c d e f g h 
[32;1m[Board] [0m  -------------------
[32;1m[Board] [0m8 ||[30;1mr[0m|[30;1mk[0m|[7;1m [0m|[30;1mQ[0m|[30;1mK[0m|[30;1mb[0m|[30;1mk[0m|[30;1mr[0m|| 8
[32;1m[Board] [0m  -------------------
[32;1m[Board] [0m7 || |[7;1m [0m|[30;1mp[0m|[30;1mp[0m| |[7;1m [0m| |[30;1mp[0m|| 7
[32;1m[Board] [0m  -------------------
[32;1m[Board] [0m6 ||[30;1mb[0m| |[7;1m [0m| |[7;1m [0m|[30;1mp[0m|[30;1mp[0m| || 6
[32;1m[Board] [0m  -------------------
[32;1m[Board] [0m5 ||[30;1mp[0m|[7;1m [0m| |[7;1m [0m|[30;1mp[0m|[7;1m [0m| |[7;1m [0m|| 5
[32;1m[Board] [0m  -------------------
[32;1m[Board] [0m4 ||[0;1mp[0m|[30;1mp[0m|[7;1m [0m| |[0;1mp[0m| |[7;1m [0m| || 4
[32;1m[Board] [0m  -------------------
[32;1m[Board] [0m3 || |[7;1m [0m|[0;1mp[0m|[7;1m [0m| |[0;1mp[0m|[0;1mp[0m|[0;1mp[0m|| 3
[32;1m[Board] [0m  -------------------
[32;1m[Board] [0m2 ||[7;1m [0m|[0;1mp[0m|[7;1m [0m|[0;1mp[0m|[0;1mk[0m| |[7;1m [0m|[0;1mr[0m|| 2
[32;1m[Board] [0m  -------------------
[32;1m[Board] [0m1 ||[0;1mr[0m|[0;1mk[0m|[0;1mb[0m|[0;1mQ[0m|[0;1mK[0m|[0;1mb[0m| |[7;1m [0m|| 1
[32;1m[Board] [0m  -------------------
[32;1m[Board] [0m    a b c d e f g h
[32;1m[Board] [0m
[32;1m[Referee] [0mThis is the turn of the Black player...
8 [100m ♖ [43m ♘ [100m   [43m ♕ [100m ♔ [43m ♗ [100m ♘ [43m ♖ [40m
7 [43m   [100m   [43m ♙ [100m ♙ [43m   [100m   [43m   [100m ♙ [40m
6 [100m ♗ [43m   [100m   [43m   [100m   [43m ♙ [100m ♙ [43m   [40m
5 [43m ♙ [100m   [43m   [100m   [43m ♙ [100m   [43m   [100m   [40m
4 [100m ♟ [43m ♙ [100m   [43m   [100m ♟ [43m   [100m   [43m   [40m
3 [43m   [100m   [43m ♟ [100m   [43m   [100m ♟ [43m ♟ [100m ♟ [40m
2 [100m   [43m ♟ [100m   [43m ♟ [100m ♞ [43m   [100m   [43m ♜ [40m
1 [43m ♜ [100m ♞ [43m ♝ [100m ♛ [43m ♚ [100m ♝ [43m   [100m   [40m
   a  b  c  d  e  f  g  h  
[32;1m[Game] [0mPlayer's error code: 0
[32;1m[Game] [0mChecking move validity...
[32;1m[Board] [0mInitializing board...
[32;1m[Board] [0mLoading history file `championship/lizzie-iii-shallowcyan/history.csv`...
[32;1m[Board] [0mLoaded 15 move(s).
[32;1m[Board] [0mLoading move file `championship/lizzie-iii-shallowcyan/move.csv`...
[32;1m[Board] [0mBlack player is playing b4 to a3.
[32;1m[Board] [0mBlack Pawn (b4) is capturing 'en-passant'...
[32;1m[Board] [0m[5;1mBlack Pawn is taking White Pawn.[0m
[32;1m[Board] [0m
[32;1m[Board] [0m    a b c d e f g h 
[32;1m[Board] [0m  -------------------
[32;1m[Board] [0m8 ||[30;1mr[0m|[30;1mk[0m|[7;1m [0m|[30;1mQ[0m|[30;1mK[0m|[30;1mb[0m|[30;1mk[0m|[30;1mr[0m|| 8
[32;1m[Board] [0m  -------------------
[32;1m[Board] [0m7 || |[7;1m [0m|[30;1mp[0m|[30;1mp[0m| |[7;1m [0m| |[30;1mp[0m|| 7
[32;1m[Board] [0m  -------------------
[32;1m[Board] [0m6 ||[30;1mb[0m| |[7;1m [0m| |[7;1m [0m|[30;1mp[0m|[30;1mp[0m| || 6
[32;1m[Board] [0m  -------------------
[32;1m[Board] [0m5 ||[30;1mp[0m|[7;1m [0m| |[7;1m [0m|[30;1mp[0m|[7;1m [0m| |[7;1m [0m|| 5
[32;1m[Board] [0m  -------------------
[32;1m[Board] [0m4 ||[7;1m [0m| |[7;1m [0m| |[0;1mp[0m| |[7;1m [0m| || 4
[32;1m[Board] [0m  -------------------
[32;1m[Board] [0m3 ||[30;1mp[0m|[7;1m [0m|[0;1mp[0m|[7;1m [0m| |[0;1mp[0m|[0;1mp[0m|[0;1mp[0m|| 3
[32;1m[Board] [0m  -------------------
[32;1m[Board] [0m2 ||[7;1m [0m|[0;1mp[0m|[7;1m [0m|[0;1mp[0m|[0;1mk[0m| |[7;1m [0m|[0;1mr[0m|| 2
[32;1m[Board] [0m  -------------------
[32;1m[Board] [0m1 ||[0;1mr[0m|[0;1mk[0m|[0;1mb[0m|[0;1mQ[0m|[0;1mK[0m|[0;1mb[0m| |[7;1m [0m|| 1
[32;1m[Board] [0m  -------------------
[32;1m[Board] [0m    a b c d e f g h
[32;1m[Board] [0m
[32;1m[Referee] [0mThis is the turn of the White player...
Input file: championship/lizzie-iii-shallowcyan/history.csv
Output file: championship/lizzie-iii-shallowcyan/move.csv
Turn of: white
Succesful move
h2h3
8 | R N B Q K B N R 
7 | P P P P P P P P 
6 | _ _ _ _ _ _ _ _ 
5 | _ _ _ _ _ _ _ _ 
4 | _ _ _ _ _ _ _ _ 
3 | _ _ _ _ _ _ _ P 
2 | P P P P P P P _ 
1 | R N B Q K B N R 
-------------------
  | A B C D E F G H 

Turn of: black
Succesful move
f7f6
8 | R N B Q K B N R 
7 | P P P P P _ P P 
6 | _ _ _ _ _ P _ _ 
5 | _ _ _ _ _ _ _ _ 
4 | _ _ _ _ _ _ _ _ 
3 | _ _ _ _ _ _ _ P 
2 | P P P P P P P _ 
1 | R N B Q K B N R 
-------------------
  | A B C D E F G H 

Turn of: white
Succesful move
c2c3
8 | R N B Q K B N R 
7 | P P P P P _ P P 
6 | _ _ _ _ _ P _ _ 
5 | _ _ _ _ _ _ _ _ 
4 | _ _ _ _ _ _ _ _ 
3 | _ _ P _ _ _ _ P 
2 | P P _ P P P P _ 
1 | R N B Q K B N R 
-------------------
  | A B C D E F G H 

Turn of: black
Succesful move
b7b5
8 | R N B Q K B N R 
7 | P _ P P P _ P P 
6 | _ _ _ _ _ P _ _ 
5 | _ P _ _ _ _ _ _ 
4 | _ _ _ _ _ _ _ _ 
3 | _ _ P _ _ _ _ P 
2 | P P _ P P P P _ 
1 | R N B Q K B N R 
-------------------
  | A B C D E F G H 

Turn of: white
Succesful move
h1h2
8 | R N B Q K B N R 
7 | P _ P P P _ P P 
6 | _ _ _ _ _ P _ _ 
5 | _ P _ _ _ _ _ _ 
4 | _ _ _ _ _ _ _ _ 
3 | _ _ P _ _ _ _ P 
2 | P P _ P P P P R 
1 | R N B Q K B N _ 
-------------------
  | A B C D E F G H 

Turn of: black
Succesful move
g7g6
8 | R N B Q K B N R 
7 | P _ P P P _ _ P 
6 | _ _ _ _ _ P P _ 
5 | _ P _ _ _ _ _ _ 
4 | _ _ _ _ _ _ _ _ 
3 | _ _ P _ _ _ _ P 
2 | P P _ P P P P R 
1 | R N B Q K B N _ 
-------------------
  | A B C D E F G H 

Turn of: white
Succesful move
e2e4
8 | R N B Q K B N R 
7 | P _ P P P _ _ P 
6 | _ _ _ _ _ P P _ 
5 | _ P _ _ _ _ _ _ 
4 | _ _ _ _ P _ _ _ 
3 | _ _ P _ _ _ _ P 
2 | P P _ P _ P P R 
1 | R N B Q K B N _ 
-------------------
  | A B C D E F G H 

Turn of: black
Succesful move
a7a5
8 | R N B Q K B N R 
7 | _ _ P P P _ _ P 
6 | _ _ _ _ _ P P _ 
5 | P P _ _ _ _ _ _ 
4 | _ _ _ _ P _ _ _ 
3 | _ _ P _ _ _ _ P 
2 | P P _ P _ P P R 
1 | R N B Q K B N _ 
-------------------
  | A B C D E F G H 

Turn of: white
Succesful move
g1e2
8 | R N B Q K B N R 
7 | _ _ P P P _ _ P 
6 | _ _ _ _ _ P P _ 
5 | P P _ _ _ _ _ _ 
4 | _ _ _ _ P _ _ _ 
3 | _ _ P _ _ _ _ P 
2 | P P _ P N P P R 
1 | R N B Q K B _ _ 
-------------------
  | A B C D E F G H 

Turn of: black
Succesful move
e7e5
8 | R N B Q K B N R 
7 | _ _ P P _ _ _ P 
6 | _ _ _ _ _ P P _ 
5 | P P _ _ P _ _ _ 
4 | _ _ _ _ P _ _ _ 
3 | _ _ P _ _ _ _ P 
2 | P P _ P N P P R 
1 | R N B Q K B _ _ 
-------------------
  | A B C D E F G H 

Turn of: white
Succesful move
g2g3
8 | R N B Q K B N R 
7 | _ _ P P _ _ _ P 
6 | _ _ _ _ _ P P _ 
5 | P P _ _ P _ _ _ 
4 | _ _ _ _ P _ _ _ 
3 | _ _ P _ _ _ P P 
2 | P P _ P N P _ R 
1 | R N B Q K B _ _ 
-------------------
  | A B C D E F G H 

Turn of: black
Succesful move
c8a6
8 | R N _ Q K B N R 
7 | _ _ P P _ _ _ P 
6 | B _ _ _ _ P P _ 
5 | P P _ _ P _ _ _ 
4 | _ _ _ _ P _ _ _ 
3 | _ _ P _ _ _ P P 
2 | P P _ P N P _ R 
1 | R N B Q K B _ _ 
-------------------
  | A B C D E F G H 

Turn of: white
Succesful move
f2f3
8 | R N _ Q K B N R 
7 | _ _ P P _ _ _ P 
6 | B _ _ _ _ P P _ 
5 | P P _ _ P _ _ _ 
4 | _ _ _ _ P _ _ _ 
3 | _ _ P _ _ P P P 
2 | P P _ P N _ _ R 
1 | R N B Q K B _ _ 
-------------------
  | A B C D E F G H 

Turn of: black
Succesful move
b5b4
8 | R N _ Q K B N R 
7 | _ _ P P _ _ _ P 
6 | B _ _ _ _ P P _ 
5 | P _ _ _ P _ _ _ 
4 | _ P _ _ P _ _ _ 
3 | _ _ P _ _ P P P 
2 | P P _ P N _ _ R 
1 | R N B Q K B _ _ 
-------------------
  | A B C D E F G H 

Turn of: white
Succesful move
a2a4
8 | R N _ Q K B N R 
7 | _ _ P P _ _ _ P 
6 | B _ _ _ _ P P _ 
5 | P _ _ _ P _ _ _ 
4 | P P _ _ P _ _ _ 
3 | _ _ P _ _ P P P 
2 | _ P _ P N _ _ R 
1 | R N B Q K B _ _ 
-------------------
  | A B C D E F G H 

Turn of: black
Succesful move
b4a3
8 | R N _ Q K B N R 
7 | _ _ P P _ _ _ P 
6 | B _ _ _ _ P P _ 
5 | P _ _ _ P _ _ _ 
4 | _ _ _ _ P _ _ _ 
3 | P _ P _ _ P P P 
2 | _ P _ P N _ _ R 
1 | R N B Q K B _ _ 
-------------------
  | A B C D E F G H 

We are playing as White
Move history:
h2h3
f7f6
c2c3
b7b5
h1h2
g7g6
e2e4
a7a5
g1e2
e7e5
g2g3
c8a6
f2f3
b5b4
a2a4
b4a3
8 | R N _ Q K B N R 
7 | _ _ P P _ _ _ P 
6 | B _ _ _ _ P P _ 
5 | P _ _ _ P _ _ _ 
4 | _ _ _ _ P _ _ _ 
3 | P _ P _ _ P P P 
2 | _ P _ P N _ _ R 
1 | R N B Q K B _ _ 
-------------------
  | A B C D E F G H 

It is white's turn to play.
AI's move: e2d4
Move written: e2d4
[32;1m[Game] [0mPlayer's error code: 0
[32;1m[Game] [0mChecking move validity...
[32;1m[Board] [0mInitializing board...
[32;1m[Board] [0mLoading history file `championship/lizzie-iii-shallowcyan/history.csv`...
[32;1m[Board] [0mLoaded 16 move(s).
[32;1m[Board] [0mLoading move file `championship/lizzie-iii-shallowcyan/move.csv`...
[32;1m[Board] [0mWhite player is playing e2 to d4.
[32;1m[Board] [0m
[32;1m[Board] [0m    a b c d e f g h 
[32;1m[Board] [0m  -------------------
[32;1m[Board] [0m8 ||[30;1mr[0m|[30;1mk[0m|[7;1m [0m|[30;1mQ[0m|[30;1mK[0m|[30;1mb[0m|[30;1mk[0m|[30;1mr[0m|| 8
[32;1m[Board] [0m  -------------------
[32;1m[Board] [0m7 || |[7;1m [0m|[30;1mp[0m|[30;1mp[0m| |[7;1m [0m| |[30;1mp[0m|| 7
[32;1m[Board] [0m  -------------------
[32;1m[Board] [0m6 ||[30;1mb[0m| |[7;1m [0m| |[7;1m [0m|[30;1mp[0m|[30;1mp[0m| || 6
[32;1m[Board] [0m  -------------------
[32;1m[Board] [0m5 ||[30;1mp[0m|[7;1m [0m| |[7;1m [0m|[30;1mp[0m|[7;1m [0m| |[7;1m [0m|| 5
[32;1m[Board] [0m  -------------------
[32;1m[Board] [0m4 ||[7;1m [0m| |[7;1m [0m|[0;1mk[0m|[0;1mp[0m| |[7;1m [0m| || 4
[32;1m[Board] [0m  -------------------
[32;1m[Board] [0m3 ||[30;1mp[0m|[7;1m [0m|[0;1mp[0m|[7;1m [0m| |[0;1mp[0m|[0;1mp[0m|[0;1mp[0m|| 3
[32;1m[Board] [0m  -------------------
[32;1m[Board] [0m2 ||[7;1m [0m|[0;1mp[0m|[7;1m [0m|[0;1mp[0m|[7;1m [0m| |[7;1m [0m|[0;1mr[0m|| 2
[32;1m[Board] [0m  -------------------
[32;1m[Board] [0m1 ||[0;1mr[0m|[0;1mk[0m|[0;1mb[0m|[0;1mQ[0m|[0;1mK[0m|[0;1mb[0m| |[7;1m [0m|| 1
[32;1m[Board] [0m  -------------------
[32;1m[Board] [0m    a b c d e f g h
[32;1m[Board] [0m
[32;1m[Referee] [0mThis is the turn of the Black player...
8 [100m ♖ [43m ♘ [100m   [43m ♕ [100m ♔ [43m ♗ [100m ♘ [43m ♖ [40m
7 [43m   [100m   [43m ♙ [100m ♙ [43m   [100m   [43m   [100m ♙ [40m
6 [100m ♗ [43m   [100m   [43m   [100m   [43m ♙ [100m ♙ [43m   [40m
5 [43m ♙ [100m   [43m   [100m   [43m ♙ [100m   [43m   [100m   [40m
4 [100m   [43m   [100m   [43m ♞ [100m ♟ [43m   [100m   [43m   [40m
3 [43m ♙ [100m   [43m ♟ [100m   [43m   [100m ♟ [43m ♟ [100m ♟ [40m
2 [100m   [43m ♟ [100m   [43m ♟ [100m   [43m   [100m   [43m ♜ [40m
1 [43m ♜ [100m ♞ [43m ♝ [100m ♛ [43m ♚ [100m ♝ [43m   [100m   [40m
   a  b  c  d  e  f  g  h  
[32;1m[Game] [0mPlayer's error code: 0
[32;1m[Game] [0mChecking move validity...
[32;1m[Board] [0mInitializing board...
[32;1m[Board] [0mLoading history file `championship/lizzie-iii-shallowcyan/history.csv`...
[32;1m[Board] [0mLoaded 17 move(s).
[32;1m[Board] [0mLoading move file `championship/lizzie-iii-shallowcyan/move.csv`...
[32;1m[Board] [0mBlack player is playing a3 to b2.
[32;1m[Board] [0m[5;1mBlack Pawn is taking White Pawn.[0m
[32;1m[Board] [0m
[32;1m[Board] [0m    a b c d e f g h 
[32;1m[Board] [0m  -------------------
[32;1m[Board] [0m8 ||[30;1mr[0m|[30;1mk[0m|[7;1m [0m|[30;1mQ[0m|[30;1mK[0m|[30;1mb[0m|[30;1mk[0m|[30;1mr[0m|| 8
[32;1m[Board] [0m  -------------------
[32;1m[Board] [0m7 || |[7;1m [0m|[30;1mp[0m|[30;1mp[0m| |[7;1m [0m| |[30;1mp[0m|| 7
[32;1m[Board] [0m  -------------------
[32;1m[Board] [0m6 ||[30;1mb[0m| |[7;1m [0m| |[7;1m [0m|[30;1mp[0m|[30;1mp[0m| || 6
[32;1m[Board] [0m  -------------------
[32;1m[Board] [0m5 ||[30;1mp[0m|[7;1m [0m| |[7;1m [0m|[30;1mp[0m|[7;1m [0m| |[7;1m [0m|| 5
[32;1m[Board] [0m  -------------------
[32;1m[Board] [0m4 ||[7;1m [0m| |[7;1m [0m|[0;1mk[0m|[0;1mp[0m| |[7;1m [0m| || 4
[32;1m[Board] [0m  -------------------
[32;1m[Board] [0m3 || |[7;1m [0m|[0;1mp[0m|[7;1m [0m| |[0;1mp[0m|[0;1mp[0m|[0;1mp[0m|| 3
[32;1m[Board] [0m  -------------------
[32;1m[Board] [0m2 ||[7;1m [0m|[30;1mp[0m|[7;1m [0m|[0;1mp[0m|[7;1m [0m| |[7;1m [0m|[0;1mr[0m|| 2
[32;1m[Board] [0m  -------------------
[32;1m[Board] [0m1 ||[0;1mr[0m|[0;1mk[0m|[0;1mb[0m|[0;1mQ[0m|[0;1mK[0m|[0;1mb[0m| |[7;1m [0m|| 1
[32;1m[Board] [0m  -------------------
[32;1m[Board] [0m    a b c d e f g h
[32;1m[Board] [0m
[32;1m[Referee] [0mThis is the turn of the White player...
Input file: championship/lizzie-iii-shallowcyan/history.csv
Output file: championship/lizzie-iii-shallowcyan/move.csv
Turn of: white
Succesful move
h2h3
8 | R N B Q K B N R 
7 | P P P P P P P P 
6 | _ _ _ _ _ _ _ _ 
5 | _ _ _ _ _ _ _ _ 
4 | _ _ _ _ _ _ _ _ 
3 | _ _ _ _ _ _ _ P 
2 | P P P P P P P _ 
1 | R N B Q K B N R 
-------------------
  | A B C D E F G H 

Turn of: black
Succesful move
f7f6
8 | R N B Q K B N R 
7 | P P P P P _ P P 
6 | _ _ _ _ _ P _ _ 
5 | _ _ _ _ _ _ _ _ 
4 | _ _ _ _ _ _ _ _ 
3 | _ _ _ _ _ _ _ P 
2 | P P P P P P P _ 
1 | R N B Q K B N R 
-------------------
  | A B C D E F G H 

Turn of: white
Succesful move
c2c3
8 | R N B Q K B N R 
7 | P P P P P _ P P 
6 | _ _ _ _ _ P _ _ 
5 | _ _ _ _ _ _ _ _ 
4 | _ _ _ _ _ _ _ _ 
3 | _ _ P _ _ _ _ P 
2 | P P _ P P P P _ 
1 | R N B Q K B N R 
-------------------
  | A B C D E F G H 

Turn of: black
Succesful move
b7b5
8 | R N B Q K B N R 
7 | P _ P P P _ P P 
6 | _ _ _ _ _ P _ _ 
5 | _ P _ _ _ _ _ _ 
4 | _ _ _ _ _ _ _ _ 
3 | _ _ P _ _ _ _ P 
2 | P P _ P P P P _ 
1 | R N B Q K B N R 
-------------------
  | A B C D E F G H 

Turn of: white
Succesful move
h1h2
8 | R N B Q K B N R 
7 | P _ P P P _ P P 
6 | _ _ _ _ _ P _ _ 
5 | _ P _ _ _ _ _ _ 
4 | _ _ _ _ _ _ _ _ 
3 | _ _ P _ _ _ _ P 
2 | P P _ P P P P R 
1 | R N B Q K B N _ 
-------------------
  | A B C D E F G H 

Turn of: black
Succesful move
g7g6
8 | R N B Q K B N R 
7 | P _ P P P _ _ P 
6 | _ _ _ _ _ P P _ 
5 | _ P _ _ _ _ _ _ 
4 | _ _ _ _ _ _ _ _ 
3 | _ _ P _ _ _ _ P 
2 | P P _ P P P P R 
1 | R N B Q K B N _ 
-------------------
  | A B C D E F G H 

Turn of: white
Succesful move
e2e4
8 | R N B Q K B N R 
7 | P _ P P P _ _ P 
6 | _ _ _ _ _ P P _ 
5 | _ P _ _ _ _ _ _ 
4 | _ _ _ _ P _ _ _ 
3 | _ _ P _ _ _ _ P 
2 | P P _ P _ P P R 
1 | R N B Q K B N _ 
-------------------
  | A B C D E F G H 

Turn of: black
Succesful move
a7a5
8 | R N B Q K B N R 
7 | _ _ P P P _ _ P 
6 | _ _ _ _ _ P P _ 
5 | P P _ _ _ _ _ _ 
4 | _ _ _ _ P _ _ _ 
3 | _ _ P _ _ _ _ P 
2 | P P _ P _ P P R 
1 | R N B Q K B N _ 
-------------------
  | A B C D E F G H 

Turn of: white
Succesful move
g1e2
8 | R N B Q K B N R 
7 | _ _ P P P _ _ P 
6 | _ _ _ _ _ P P _ 
5 | P P _ _ _ _ _ _ 
4 | _ _ _ _ P _ _ _ 
3 | _ _ P _ _ _ _ P 
2 | P P _ P N P P R 
1 | R N B Q K B _ _ 
-------------------
  | A B C D E F G H 

Turn of: black
Succesful move
e7e5
8 | R N B Q K B N R 
7 | _ _ P P _ _ _ P 
6 | _ _ _ _ _ P P _ 
5 | P P _ _ P _ _ _ 
4 | _ _ _ _ P _ _ _ 
3 | _ _ P _ _ _ _ P 
2 | P P _ P N P P R 
1 | R N B Q K B _ _ 
-------------------
  | A B C D E F G H 

Turn of: white
Succesful move
g2g3
8 | R N B Q K B N R 
7 | _ _ P P _ _ _ P 
6 | _ _ _ _ _ P P _ 
5 | P P _ _ P _ _ _ 
4 | _ _ _ _ P _ _ _ 
3 | _ _ P _ _ _ P P 
2 | P P _ P N P _ R 
1 | R N B Q K B _ _ 
-------------------
  | A B C D E F G H 

Turn of: black
Succesful move
c8a6
8 | R N _ Q K B N R 
7 | _ _ P P _ _ _ P 
6 | B _ _ _ _ P P _ 
5 | P P _ _ P _ _ _ 
4 | _ _ _ _ P _ _ _ 
3 | _ _ P _ _ _ P P 
2 | P P _ P N P _ R 
1 | R N B Q K B _ _ 
-------------------
  | A B C D E F G H 

Turn of: white
Succesful move
f2f3
8 | R N _ Q K B N R 
7 | _ _ P P _ _ _ P 
6 | B _ _ _ _ P P _ 
5 | P P _ _ P _ _ _ 
4 | _ _ _ _ P _ _ _ 
3 | _ _ P _ _ P P P 
2 | P P _ P N _ _ R 
1 | R N B Q K B _ _ 
-------------------
  | A B C D E F G H 

Turn of: black
Succesful move
b5b4
8 | R N _ Q K B N R 
7 | _ _ P P _ _ _ P 
6 | B _ _ _ _ P P _ 
5 | P _ _ _ P _ _ _ 
4 | _ P _ _ P _ _ _ 
3 | _ _ P _ _ P P P 
2 | P P _ P N _ _ R 
1 | R N B Q K B _ _ 
-------------------
  | A B C D E F G H 

Turn of: white
Succesful move
a2a4
8 | R N _ Q K B N R 
7 | _ _ P P _ _ _ P 
6 | B _ _ _ _ P P _ 
5 | P _ _ _ P _ _ _ 
4 | P P _ _ P _ _ _ 
3 | _ _ P _ _ P P P 
2 | _ P _ P N _ _ R 
1 | R N B Q K B _ _ 
-------------------
  | A B C D E F G H 

Turn of: black
Succesful move
b4a3
8 | R N _ Q K B N R 
7 | _ _ P P _ _ _ P 
6 | B _ _ _ _ P P _ 
5 | P _ _ _ P _ _ _ 
4 | _ _ _ _ P _ _ _ 
3 | P _ P _ _ P P P 
2 | _ P _ P N _ _ R 
1 | R N B Q K B _ _ 
-------------------
  | A B C D E F G H 

Turn of: white
Succesful move
e2d4
8 | R N _ Q K B N R 
7 | _ _ P P _ _ _ P 
6 | B _ _ _ _ P P _ 
5 | P _ _ _ P _ _ _ 
4 | _ _ _ N P _ _ _ 
3 | P _ P _ _ P P P 
2 | _ P _ P _ _ _ R 
1 | R N B Q K B _ _ 
-------------------
  | A B C D E F G H 

Turn of: black
Succesful move
a3b2
8 | R N _ Q K B N R 
7 | _ _ P P _ _ _ P 
6 | B _ _ _ _ P P _ 
5 | P _ _ _ P _ _ _ 
4 | _ _ _ N P _ _ _ 
3 | _ _ P _ _ P P P 
2 | _ P _ P _ _ _ R 
1 | R N B Q K B _ _ 
-------------------
  | A B C D E F G H 

We are playing as White
Move history:
h2h3
f7f6
c2c3
b7b5
h1h2
g7g6
e2e4
a7a5
g1e2
e7e5
g2g3
c8a6
f2f3
b5b4
a2a4
b4a3
e2d4
a3b2
8 | R N _ Q K B N R 
7 | _ _ P P _ _ _ P 
6 | B _ _ _ _ P P _ 
5 | P _ _ _ P _ _ _ 
4 | _ _ _ N P _ _ _ 
3 | _ _ P _ _ P P P 
2 | _ P _ P _ _ _ R 
1 | R N B Q K B _ _ 
-------------------
  | A B C D E F G H 

It is white's turn to play.
AI's move: d2d3
Move written: d2d3
[32;1m[Game] [0mPlayer's error code: 0
[32;1m[Game] [0mChecking move validity...
[32;1m[Board] [0mInitializing board...
[32;1m[Board] [0mLoading history file `championship/lizzie-iii-shallowcyan/history.csv`...
[32;1m[Board] [0mLoaded 18 move(s).
[32;1m[Board] [0mLoading move file `championship/lizzie-iii-shallowcyan/move.csv`...
[32;1m[Board] [0mWhite player is playing d2 to d3.
[32;1m[Board] [0m
[32;1m[Board] [0m    a b c d e f g h 
[32;1m[Board] [0m  -------------------
[32;1m[Board] [0m8 ||[30;1mr[0m|[30;1mk[0m|[7;1m [0m|[30;1mQ[0m|[30;1mK[0m|[30;1mb[0m|[30;1mk[0m|[30;1mr[0m|| 8
[32;1m[Board] [0m  -------------------
[32;1m[Board] [0m7 || |[7;1m [0m|[30;1mp[0m|[30;1mp[0m| |[7;1m [0m| |[30;1mp[0m|| 7
[32;1m[Board] [0m  -------------------
[32;1m[Board] [0m6 ||[30;1mb[0m| |[7;1m [0m| |[7;1m [0m|[30;1mp[0m|[30;1mp[0m| || 6
[32;1m[Board] [0m  -------------------
[32;1m[Board] [0m5 ||[30;1mp[0m|[7;1m [0m| |[7;1m [0m|[30;1mp[0m|[7;1m [0m| |[7;1m [0m|| 5
[32;1m[Board] [0m  -------------------
[32;1m[Board] [0m4 ||[7;1m [0m| |[7;1m [0m|[0;1mk[0m|[0;1mp[0m| |[7;1m [0m| || 4
[32;1m[Board] [0m  -------------------
[32;1m[Board] [0m3 || |[7;1m [0m|[0;1mp[0m|[0;1mp[0m| |[0;1mp[0m|[0;1mp[0m|[0;1mp[0m|| 3
[32;1m[Board] [0m  -------------------
[32;1m[Board] [0m2 ||[7;1m [0m|[30;1mp[0m|[7;1m [0m| |[7;1m [0m| |[7;1m [0m|[0;1mr[0m|| 2
[32;1m[Board] [0m  -------------------
[32;1m[Board] [0m1 ||[0;1mr[0m|[0;1mk[0m|[0;1mb[0m|[0;1mQ[0m|[0;1mK[0m|[0;1mb[0m| |[7;1m [0m|| 1
[32;1m[Board] [0m  -------------------
[32;1m[Board] [0m    a b c d e f g h
[32;1m[Board] [0m
[32;1m[Referee] [0mThis is the turn of the Black player...
8 [100m ♖ [43m ♘ [100m   [43m ♕ [100m ♔ [43m ♗ [100m ♘ [43m ♖ [40m
7 [43m   [100m   [43m ♙ [100m ♙ [43m   [100m   [43m   [100m ♙ [40m
6 [100m ♗ [43m   [100m   [43m   [100m   [43m ♙ [100m ♙ [43m   [40m
5 [43m ♙ [100m   [43m   [100m   [43m ♙ [100m   [43m   [100m   [40m
4 [100m   [43m   [100m   [43m ♞ [100m ♟ [43m   [100m   [43m   [40m
3 [43m   [100m   [43m ♟ [100m ♟ [43m   [100m ♟ [43m ♟ [100m ♟ [40m
2 [100m   [43m ♙ [100m   [43m   [100m   [43m   [100m   [43m ♜ [40m
1 [43m ♜ [100m ♞ [43m ♝ [100m ♛ [43m ♚ [100m ♝ [43m   [100m   [40m
   a  b  c  d  e  f  g  h  
[32;1m[Game] [0mPlayer's error code: 0
[32;1m[Game] [0mChecking move validity...
[32;1m[Board] [0mInitializing board...
[32;1m[Board] [0mLoading history file `championship/lizzie-iii-shallowcyan/history.csv`...
[32;1m[Board] [0mLoaded 19 move(s).
[32;1m[Board] [0mLoading move file `championship/lizzie-iii-shallowcyan/move.csv`...
[32;1m[Board] [0mBlack player is playing b2 to a1.
[32;1m[Board] [0m[5;1mBlack Pawn is taking White Rook.[0m
[32;1m[Board] [0mPromoting a Black Pawn into a Queen
[32;1m[Board] [0m
[32;1m[Board] [0m    a b c d e f g h 
[32;1m[Board] [0m  -------------------
[32;1m[Board] [0m8 ||[30;1mr[0m|[30;1mk[0m|[7;1m [0m|[30;1mQ[0m|[30;1mK[0m|[30;1mb[0m|[30;1mk[0m|[30;1mr[0m|| 8
[32;1m[Board] [0m  -------------------
[32;1m[Board] [0m7 || |[7;1m [0m|[30;1mp[0m|[30;1mp[0m| |[7;1m [0m| |[30;1mp[0m|| 7
[32;1m[Board] [0m  -------------------
[32;1m[Board] [0m6 ||[30;1mb[0m| |[7;1m [0m| |[7;1m [0m|[30;1mp[0m|[30;1mp[0m| || 6
[32;1m[Board] [0m  -------------------
[32;1m[Board] [0m5 ||[30;1mp[0m|[7;1m [0m| |[7;1m [0m|[30;1mp[0m|[7;1m [0m| |[7;1m [0m|| 5
[32;1m[Board] [0m  -------------------
[32;1m[Board] [0m4 ||[7;1m [0m| |[7;1m [0m|[0;1mk[0m|[0;1mp[0m| |[7;1m [0m| || 4
[32;1m[Board] [0m  -------------------
[32;1m[Board] [0m3 || |[7;1m [0m|[0;1mp[0m|[0;1mp[0m| |[0;1mp[0m|[0;1mp[0m|[0;1mp[0m|| 3
[32;1m[Board] [0m  -------------------
[32;1m[Board] [0m2 ||[7;1m [0m| |[7;1m [0m| |[7;1m [0m| |[7;1m [0m|[0;1mr[0m|| 2
[32;1m[Board] [0m  -------------------
[32;1m[Board] [0m1 ||[30;1mQ[0m|[0;1mk[0m|[0;1mb[0m|[0;1mQ[0m|[0;1mK[0m|[0;1mb[0m| |[7;1m [0m|| 1
[32;1m[Board] [0m  -------------------
[32;1m[Board] [0m    a b c d e f g h
[32;1m[Board] [0m
[32;1m[Referee] [0mThis is the turn of the White player...
Input file: championship/lizzie-iii-shallowcyan/history.csv
Output file: championship/lizzie-iii-shallowcyan/move.csv
Turn of: white
Succesful move
h2h3
8 | R N B Q K B N R 
7 | P P P P P P P P 
6 | _ _ _ _ _ _ _ _ 
5 | _ _ _ _ _ _ _ _ 
4 | _ _ _ _ _ _ _ _ 
3 | _ _ _ _ _ _ _ P 
2 | P P P P P P P _ 
1 | R N B Q K B N R 
-------------------
  | A B C D E F G H 

Turn of: black
Succesful move
f7f6
8 | R N B Q K B N R 
7 | P P P P P _ P P 
6 | _ _ _ _ _ P _ _ 
5 | _ _ _ _ _ _ _ _ 
4 | _ _ _ _ _ _ _ _ 
3 | _ _ _ _ _ _ _ P 
2 | P P P P P P P _ 
1 | R N B Q K B N R 
-------------------
  | A B C D E F G H 

Turn of: white
Succesful move
c2c3
8 | R N B Q K B N R 
7 | P P P P P _ P P 
6 | _ _ _ _ _ P _ _ 
5 | _ _ _ _ _ _ _ _ 
4 | _ _ _ _ _ _ _ _ 
3 | _ _ P _ _ _ _ P 
2 | P P _ P P P P _ 
1 | R N B Q K B N R 
-------------------
  | A B C D E F G H 

Turn of: black
Succesful move
b7b5
8 | R N B Q K B N R 
7 | P _ P P P _ P P 
6 | _ _ _ _ _ P _ _ 
5 | _ P _ _ _ _ _ _ 
4 | _ _ _ _ _ _ _ _ 
3 | _ _ P _ _ _ _ P 
2 | P P _ P P P P _ 
1 | R N B Q K B N R 
-------------------
  | A B C D E F G H 

Turn of: white
Succesful move
h1h2
8 | R N B Q K B N R 
7 | P _ P P P _ P P 
6 | _ _ _ _ _ P _ _ 
5 | _ P _ _ _ _ _ _ 
4 | _ _ _ _ _ _ _ _ 
3 | _ _ P _ _ _ _ P 
2 | P P _ P P P P R 
1 | R N B Q K B N _ 
-------------------
  | A B C D E F G H 

Turn of: black
Succesful move
g7g6
8 | R N B Q K B N R 
7 | P _ P P P _ _ P 
6 | _ _ _ _ _ P P _ 
5 | _ P _ _ _ _ _ _ 
4 | _ _ _ _ _ _ _ _ 
3 | _ _ P _ _ _ _ P 
2 | P P _ P P P P R 
1 | R N B Q K B N _ 
-------------------
  | A B C D E F G H 

Turn of: white
Succesful move
e2e4
8 | R N B Q K B N R 
7 | P _ P P P _ _ P 
6 | _ _ _ _ _ P P _ 
5 | _ P _ _ _ _ _ _ 
4 | _ _ _ _ P _ _ _ 
3 | _ _ P _ _ _ _ P 
2 | P P _ P _ P P R 
1 | R N B Q K B N _ 
-------------------
  | A B C D E F G H 

Turn of: black
Succesful move
a7a5
8 | R N B Q K B N R 
7 | _ _ P P P _ _ P 
6 | _ _ _ _ _ P P _ 
5 | P P _ _ _ _ _ _ 
4 | _ _ _ _ P _ _ _ 
3 | _ _ P _ _ _ _ P 
2 | P P _ P _ P P R 
1 | R N B Q K B N _ 
-------------------
  | A B C D E F G H 

Turn of: white
Succesful move
g1e2
8 | R N B Q K B N R 
7 | _ _ P P P _ _ P 
6 | _ _ _ _ _ P P _ 
5 | P P _ _ _ _ _ _ 
4 | _ _ _ _ P _ _ _ 
3 | _ _ P _ _ _ _ P 
2 | P P _ P N P P R 
1 | R N B Q K B _ _ 
-------------------
  | A B C D E F G H 

Turn of: black
Succesful move
e7e5
8 | R N B Q K B N R 
7 | _ _ P P _ _ _ P 
6 | _ _ _ _ _ P P _ 
5 | P P _ _ P _ _ _ 
4 | _ _ _ _ P _ _ _ 
3 | _ _ P _ _ _ _ P 
2 | P P _ P N P P R 
1 | R N B Q K B _ _ 
-------------------
  | A B C D E F G H 

Turn of: white
Succesful move
g2g3
8 | R N B Q K B N R 
7 | _ _ P P _ _ _ P 
6 | _ _ _ _ _ P P _ 
5 | P P _ _ P _ _ _ 
4 | _ _ _ _ P _ _ _ 
3 | _ _ P _ _ _ P P 
2 | P P _ P N P _ R 
1 | R N B Q K B _ _ 
-------------------
  | A B C D E F G H 

Turn of: black
Succesful move
c8a6
8 | R N _ Q K B N R 
7 | _ _ P P _ _ _ P 
6 | B _ _ _ _ P P _ 
5 | P P _ _ P _ _ _ 
4 | _ _ _ _ P _ _ _ 
3 | _ _ P _ _ _ P P 
2 | P P _ P N P _ R 
1 | R N B Q K B _ _ 
-------------------
  | A B C D E F G H 

Turn of: white
Succesful move
f2f3
8 | R N _ Q K B N R 
7 | _ _ P P _ _ _ P 
6 | B _ _ _ _ P P _ 
5 | P P _ _ P _ _ _ 
4 | _ _ _ _ P _ _ _ 
3 | _ _ P _ _ P P P 
2 | P P _ P N _ _ R 
1 | R N B Q K B _ _ 
-------------------
  | A B C D E F G H 

Turn of: black
Succesful move
b5b4
8 | R N _ Q K B N R 
7 | _ _ P P _ _ _ P 
6 | B _ _ _ _ P P _ 
5 | P _ _ _ P _ _ _ 
4 | _ P _ _ P _ _ _ 
3 | _ _ P _ _ P P P 
2 | P P _ P N _ _ R 
1 | R N B Q K B _ _ 
-------------------
  | A B C D E F G H 

Turn of: white
Succesful move
a2a4
8 | R N _ Q K B N R 
7 | _ _ P P _ _ _ P 
6 | B _ _ _ _ P P _ 
5 | P _ _ _ P _ _ _ 
4 | P P _ _ P _ _ _ 
3 | _ _ P _ _ P P P 
2 | _ P _ P N _ _ R 
1 | R N B Q K B _ _ 
-------------------
  | A B C D E F G H 

Turn of: black
Succesful move
b4a3
8 | R N _ Q K B N R 
7 | _ _ P P _ _ _ P 
6 | B _ _ _ _ P P _ 
5 | P _ _ _ P _ _ _ 
4 | _ _ _ _ P _ _ _ 
3 | P _ P _ _ P P P 
2 | _ P _ P N _ _ R 
1 | R N B Q K B _ _ 
-------------------
  | A B C D E F G H 

Turn of: white
Succesful move
e2d4
8 | R N _ Q K B N R 
7 | _ _ P P _ _ _ P 
6 | B _ _ _ _ P P _ 
5 | P _ _ _ P _ _ _ 
4 | _ _ _ N P _ _ _ 
3 | P _ P _ _ P P P 
2 | _ P _ P _ _ _ R 
1 | R N B Q K B _ _ 
-------------------
  | A B C D E F G H 

Turn of: black
Succesful move
a3b2
8 | R N _ Q K B N R 
7 | _ _ P P _ _ _ P 
6 | B _ _ _ _ P P _ 
5 | P _ _ _ P _ _ _ 
4 | _ _ _ N P _ _ _ 
3 | _ _ P _ _ P P P 
2 | _ P _ P _ _ _ R 
1 | R N B Q K B _ _ 
-------------------
  | A B C D E F G H 

Turn of: white
Succesful move
d2d3
8 | R N _ Q K B N R 
7 | _ _ P P _ _ _ P 
6 | B _ _ _ _ P P _ 
5 | P _ _ _ P _ _ _ 
4 | _ _ _ N P _ _ _ 
3 | _ _ P P _ P P P 
2 | _ P _ _ _ _ _ R 
1 | R N B Q K B _ _ 
-------------------
  | A B C D E F G H 

Turn of: black
Succesful move
b2a1q
8 | R N _ Q K B N R 
7 | _ _ P P _ _ _ P 
6 | B _ _ _ _ P P _ 
5 | P _ _ _ P _ _ _ 
4 | _ _ _ N P _ _ _ 
3 | _ _ P P _ P P P 
2 | _ _ _ _ _ _ _ R 
1 | Q N B Q K B _ _ 
-------------------
  | A B C D E F G H 

We are playing as White
Move history:
h2h3
f7f6
c2c3
b7b5
h1h2
g7g6
e2e4
a7a5
g1e2
e7e5
g2g3
c8a6
f2f3
b5b4
a2a4
b4a3
e2d4
a3b2
d2d3
b2a1q
8 | R N _ Q K B N R 
7 | _ _ P P _ _ _ P 
6 | B _ _ _ _ P P _ 
5 | P _ _ _ P _ _ _ 
4 | _ _ _ N P _ _ _ 
3 | _ _ P P _ P P P 
2 | _ _ _ _ _ _ _ R 
1 | Q N B Q K B _ _ 
-------------------
  | A B C D E F G H 

It is white's turn to play.
AI's move: d1d2
Move written: d1d2
[32;1m[Game] [0mPlayer's error code: 0
[32;1m[Game] [0mChecking move validity...
[32;1m[Board] [0mInitializing board...
[32;1m[Board] [0mLoading history file `championship/lizzie-iii-shallowcyan/history.csv`...
[32;1m[Board] [0mLoaded 20 move(s).
[32;1m[Board] [0mLoading move file `championship/lizzie-iii-shallowcyan/move.csv`...
[32;1m[Board] [0mWhite player is playing d1 to d2.
[32;1m[Board] [0m
[32;1m[Board] [0m    a b c d e f g h 
[32;1m[Board] [0m  -------------------
[32;1m[Board] [0m8 ||[30;1mr[0m|[30;1mk[0m|[7;1m [0m|[30;1mQ[0m|[30;1mK[0m|[30;1mb[0m|[30;1mk[0m|[30;1mr[0m|| 8
[32;1m[Board] [0m  -------------------
[32;1m[Board] [0m7 || |[7;1m [0m|[30;1mp[0m|[30;1mp[0m| |[7;1m [0m| |[30;1mp[0m|| 7
[32;1m[Board] [0m  -------------------
[32;1m[Board] [0m6 ||[30;1mb[0m| |[7;1m [0m| |[7;1m [0m|[30;1mp[0m|[30;1mp[0m| || 6
[32;1m[Board] [0m  -------------------
[32;1m[Board] [0m5 ||[30;1mp[0m|[7;1m [0m| |[7;1m [0m|[30;1mp[0m|[7;1m [0m| |[7;1m [0m|| 5
[32;1m[Board] [0m  -------------------
[32;1m[Board] [0m4 ||[7;1m [0m| |[7;1m [0m|[0;1mk[0m|[0;1mp[0m| |[7;1m [0m| || 4
[32;1m[Board] [0m  -------------------
[32;1m[Board] [0m3 || |[7;1m [0m|[0;1mp[0m|[0;1mp[0m| |[0;1mp[0m|[0;1mp[0m|[0;1mp[0m|| 3
[32;1m[Board] [0m  -------------------
[32;1m[Board] [0m2 ||[7;1m [0m| |[7;1m [0m|[0;1mQ[0m|[7;1m [0m| |[7;1m [0m|[0;1mr[0m|| 2
[32;1m[Board] [0m  -------------------
[32;1m[Board] [0m1 ||[30;1mQ[0m|[0;1mk[0m|[0;1mb[0m|[7;1m [0m|[0;1mK[0m|[0;1mb[0m| |[7;1m [0m|| 1
[32;1m[Board] [0m  -------------------
[32;1m[Board] [0m    a b c d e f g h
[32;1m[Board] [0m
[32;1m[Referee] [0mThis is the turn of the Black player...
8 [100m ♖ [43m ♘ [100m   [43m ♕ [100m ♔ [43m ♗ [100m ♘ [43m ♖ [40m
7 [43m   [100m   [43m ♙ [100m ♙ [43m   [100m   [43m   [100m ♙ [40m
6 [100m ♗ [43m   [100m   [43m   [100m   [43m ♙ [100m ♙ [43m   [40m
5 [43m ♙ [100m   [43m   [100m   [43m ♙ [100m   [43m   [100m   [40m
4 [100m   [43m   [100m   [43m ♞ [100m ♟ [43m   [100m   [43m   [40m
3 [43m   [100m   [43m ♟ [100m ♟ [43m   [100m ♟ [43m ♟ [100m ♟ [40m
2 [100m   [43m   [100m   [43m ♛ [100m   [43m   [100m   [43m ♜ [40m
1 [43m ♕ [100m ♞ [43m ♝ [100m   [43m ♚ [100m ♝ [43m   [100m   [40m
   a  b  c  d  e  f  g  h  
[32;1m[Game] [0mPlayer's error code: 0
[32;1m[Game] [0mChecking move validity...
[32;1m[Board] [0mInitializing board...
[32;1m[Board] [0mLoading history file `championship/lizzie-iii-shallowcyan/history.csv`...
[32;1m[Board] [0mLoaded 21 move(s).
[32;1m[Board] [0mLoading move file `championship/lizzie-iii-shallowcyan/move.csv`...
[32;1m[Board] [0mBlack player is playing a1 to b1.
[32;1m[Board] [0m[5;1mBlack Queen is taking White Knight.[0m
[32;1m[Board] [0m
[32;1m[Board] [0m    a b c d e f g h 
[32;1m[Board] [0m  -------------------
[32;1m[Board] [0m8 ||[30;1mr[0m|[30;1mk[0m|[7;1m [0m|[30;1mQ[0m|[30;1mK[0m|[30;1mb[0m|[30;1mk[0m|[30;1mr[0m|| 8
[...]
-------------------
  | A B C D E F G H 

Turn of: white
Succesful move
e2d1
8 | R N _ Q K B N R 
7 | _ _ P P _ _ _ P 
6 | B _ _ _ _ P P _ 
5 | P _ _ _ _ _ _ _ 
4 | _ _ _ P P _ _ _ 
3 | _ _ P P Q P P P 
2 | Q _ _ _ _ _ R _ 
1 | _ _ _ K _ B _ _ 
-------------------
  | A B C D E F G H 

Turn of: black
Succesful move
a6d3
8 | R N _ Q K B N R 
7 | _ _ P P _ _ _ P 
6 | _ _ _ _ _ P P _ 
5 | P _ _ _ _ _ _ _ 
4 | _ _ _ P P _ _ _ 
3 | _ _ P B Q P P P 
2 | Q _ _ _ _ _ R _ 
1 | _ _ _ K _ B _ _ 
-------------------
  | A B C D E F G H 

Turn of: white
Succesful move
f3f4
8 | R N _ Q K B N R 
7 | _ _ P P _ _ _ P 
6 | _ _ _ _ _ P P _ 
5 | P _ _ _ _ _ _ _ 
4 | _ _ _ P P P _ _ 
3 | _ _ P B Q _ P P 
2 | Q _ _ _ _ _ R _ 
1 | _ _ _ K _ B _ _ 
-------------------
  | A B C D E F G H 

Turn of: black
Succesful move
d3f1
8 | R N _ Q K B N R 
7 | _ _ P P _ _ _ P 
6 | _ _ _ _ _ P P _ 
5 | P _ _ _ _ _ _ _ 
4 | _ _ _ P P P _ _ 
3 | _ _ P _ Q _ P P 
2 | Q _ _ _ _ _ R _ 
1 | _ _ _ K _ B _ _ 
-------------------
  | A B C D E F G H 

Turn of: white
Succesful move
a2a1
8 | R N _ Q K B N R 
7 | _ _ P P _ _ _ P 
6 | _ _ _ _ _ P P _ 
5 | P _ _ _ _ _ _ _ 
4 | _ _ _ P P P _ _ 
3 | _ _ P _ Q _ P P 
2 | _ _ _ _ _ _ R _ 
1 | Q _ _ K _ B _ _ 
-------------------
  | A B C D E F G H 

Turn of: black
Succesful move
f1g2
8 | R N _ Q K B N R 
7 | _ _ P P _ _ _ P 
6 | _ _ _ _ _ P P _ 
5 | P _ _ _ _ _ _ _ 
4 | _ _ _ P P P _ _ 
3 | _ _ P _ Q _ P P 
2 | _ _ _ _ _ _ B _ 
1 | Q _ _ K _ _ _ _ 
-------------------
  | A B C D E F G H 

We are playing as White
Move history:
h2h3
f7f6
c2c3
b7b5
h1h2
g7g6
e2e4
a7a5
g1e2
e7e5
g2g3
c8a6
f2f3
b5b4
a2a4
b4a3
e2d4
a3b2
d2d3
b2a1q
d1d2
a1b1
h2g2
e5d4
d2a2
b1c1
e1e2
c1e3
e2d1
a6d3
f3f4
d3f1
a2a1
f1g2
8 | R N _ Q K B N R 
7 | _ _ P P _ _ _ P 
6 | _ _ _ _ _ P P _ 
5 | P _ _ _ _ _ _ _ 
4 | _ _ _ P P P _ _ 
3 | _ _ P _ Q _ P P 
2 | _ _ _ _ _ _ B _ 
1 | Q _ _ K _ _ _ _ 
-------------------
  | A B C D E F G H 

It is white's turn to play.
AI's move: e4e5
Move written: e4e5
[32;1m[Game] [0mPlayer's error code: 0
[32;1m[Game] [0mChecking move validity...
[32;1m[Board] [0mInitializing board...
[32;1m[Board] [0mLoading history file `championship/lizzie-iii-shallowcyan/history.csv`...
[32;1m[Board] [0mLoaded 34 move(s).
[32;1m[Board] [0mLoading move file `championship/lizzie-iii-shallowcyan/move.csv`...
[32;1m[Board] [0mWhite player is playing e4 to e5.
[32;1m[Board] [0m
[32;1m[Board] [0m    a b c d e f g h 
[32;1m[Board] [0m  -------------------
[32;1m[Board] [0m8 ||[30;1mr[0m|[30;1mk[0m|[7;1m [0m|[30;1mQ[0m|[30;1mK[0m|[30;1mb[0m|[30;1mk[0m|[30;1mr[0m|| 8
[32;1m[Board] [0m  -------------------
[32;1m[Board] [0m7 || |[7;1m [0m|[30;1mp[0m|[30;1mp[0m| |[7;1m [0m| |[30;1mp[0m|| 7
[32;1m[Board] [0m  -------------------
[32;1m[Board] [0m6 ||[7;1m [0m| |[7;1m [0m| |[7;1m [0m|[30;1mp[0m|[30;1mp[0m| || 6
[32;1m[Board] [0m  -------------------
[32;1m[Board] [0m5 ||[30;1mp[0m|[7;1m [0m| |[7;1m [0m|[0;1mp[0m|[7;1m [0m| |[7;1m [0m|| 5
[32;1m[Board] [0m  -------------------
[32;1m[Board] [0m4 ||[7;1m [0m| |[7;1m [0m|[30;1mp[0m|[7;1m [0m|[0;1mp[0m|[7;1m [0m| || 4
[32;1m[Board] [0m  -------------------
[32;1m[Board] [0m3 || |[7;1m [0m|[0;1mp[0m|[7;1m [0m|[30;1mQ[0m|[7;1m [0m|[0;1mp[0m|[0;1mp[0m|| 3
[32;1m[Board] [0m  -------------------
[32;1m[Board] [0m2 ||[7;1m [0m| |[7;1m [0m| |[7;1m [0m| |[30;1mb[0m| || 2
[32;1m[Board] [0m  -------------------
[32;1m[Board] [0m1 ||[0;1mQ[0m|[7;1m [0m| |[0;1mK[0m| |[7;1m [0m| |[7;1m [0m|| 1
[32;1m[Board] [0m  -------------------
[32;1m[Board] [0m    a b c d e f g h
[32;1m[Board] [0m
[32;1m[Referee] [0mThis is the turn of the Black player...
8 [100m ♖ [43m ♘ [100m   [43m ♕ [100m ♔ [43m ♗ [100m ♘ [43m ♖ [40m
7 [43m   [100m   [43m ♙ [100m ♙ [43m   [100m   [43m   [100m ♙ [40m
6 [100m   [43m   [100m   [43m   [100m   [43m ♙ [100m ♙ [43m   [40m
5 [43m ♙ [100m   [43m   [100m   [43m ♟ [100m   [43m   [100m   [40m
4 [100m   [43m   [100m   [43m ♙ [100m   [43m ♟ [100m   [43m   [40m
3 [43m   [100m   [43m ♟ [100m   [43m ♕ [100m   [43m ♟ [100m ♟ [40m
2 [100m   [43m   [100m   [43m   [100m   [43m   [100m ♗ [43m   [40m
1 [43m ♛ [100m   [43m   [100m ♚ [43m   [100m   [43m   [100m   [40m
   a  b  c  d  e  f  g  h  
[32;1m[Game] [0mPlayer's error code: 0
[32;1m[Game] [0mChecking move validity...
[32;1m[Board] [0mInitializing board...
[32;1m[Board] [0mLoading history file `championship/lizzie-iii-shallowcyan/history.csv`...
[32;1m[Board] [0mLoaded 35 move(s).
[32;1m[Board] [0mLoading move file `championship/lizzie-iii-shallowcyan/move.csv`...
[32;1m[Board] [0mBlack player is playing d4 to d3.
[32;1m[Board] [0m
[32;1m[Board] [0m    a b c d e f g h 
[32;1m[Board] [0m  -------------------
[32;1m[Board] [0m8 ||[30;1mr[0m|[30;1mk[0m|[7;1m [0m|[30;1mQ[0m|[30;1mK[0m|[30;1mb[0m|[30;1mk[0m|[30;1mr[0m|| 8
[32;1m[Board] [0m  -------------------
[32;1m[Board] [0m7 || |[7;1m [0m|[30;1mp[0m|[30;1mp[0m| |[7;1m [0m| |[30;1mp[0m|| 7
[32;1m[Board] [0m  -------------------
[32;1m[Board] [0m6 ||[7;1m [0m| |[7;1m [0m| |[7;1m [0m|[30;1mp[0m|[30;1mp[0m| || 6
[32;1m[Board] [0m  -------------------
[32;1m[Board] [0m5 ||[30;1mp[0m|[7;1m [0m| |[7;1m [0m|[0;1mp[0m|[7;1m [0m| |[7;1m [0m|| 5
[32;1m[Board] [0m  -------------------
[32;1m[Board] [0m4 ||[7;1m [0m| |[7;1m [0m| |[7;1m [0m|[0;1mp[0m|[7;1m [0m| || 4
[32;1m[Board] [0m  -------------------
[32;1m[Board] [0m3 || |[7;1m [0m|[0;1mp[0m|[30;1mp[0m|[30;1mQ[0m|[7;1m [0m|[0;1mp[0m|[0;1mp[0m|| 3
[32;1m[Board] [0m  -------------------
[32;1m[Board] [0m2 ||[7;1m [0m| |[7;1m [0m| |[7;1m [0m| |[30;1mb[0m| || 2
[32;1m[Board] [0m  -------------------
[32;1m[Board] [0m1 ||[0;1mQ[0m|[7;1m [0m| |[0;1mK[0m| |[7;1m [0m| |[7;1m [0m|| 1
[32;1m[Board] [0m  -------------------
[32;1m[Board] [0m    a b c d e f g h
[32;1m[Board] [0m
[32;1m[Referee] [0mThis is the turn of the White player...
Input file: championship/lizzie-iii-shallowcyan/history.csv
Output file: championship/lizzie-iii-shallowcyan/move.csv
Turn of: white
Succesful move
h2h3
8 | R N B Q K B N R 
7 | P P P P P P P P 
6 | _ _ _ _ _ _ _ _ 
5 | _ _ _ _ _ _ _ _ 
4 | _ _ _ _ _ _ _ _ 
3 | _ _ _ _ _ _ _ P 
2 | P P P P P P P _ 
1 | R N B Q K B N R 
-------------------
  | A B C D E F G H 

Turn of: black
Succesful move
f7f6
8 | R N B Q K B N R 
7 | P P P P P _ P P 
6 | _ _ _ _ _ P _ _ 
5 | _ _ _ _ _ _ _ _ 
4 | _ _ _ _ _ _ _ _ 
3 | _ _ _ _ _ _ _ P 
2 | P P P P P P P _ 
1 | R N B Q K B N R 
-------------------
  | A B C D E F G H 

Turn of: white
Succesful move
c2c3
8 | R N B Q K B N R 
7 | P P P P P _ P P 
6 | _ _ _ _ _ P _ _ 
5 | _ _ _ _ _ _ _ _ 
4 | _ _ _ _ _ _ _ _ 
3 | _ _ P _ _ _ _ P 
2 | P P _ P P P P _ 
1 | R N B Q K B N R 
-------------------
  | A B C D E F G H 

Turn of: black
Succesful move
b7b5
8 | R N B Q K B N R 
7 | P _ P P P _ P P 
6 | _ _ _ _ _ P _ _ 
5 | _ P _ _ _ _ _ _ 
4 | _ _ _ _ _ _ _ _ 
3 | _ _ P _ _ _ _ P 
2 | P P _ P P P P _ 
1 | R N B Q K B N R 
-------------------
  | A B C D E F G H 

Turn of: white
Succesful move
h1h2
8 | R N B Q K B N R 
7 | P _ P P P _ P P 
6 | _ _ _ _ _ P _ _ 
5 | _ P _ _ _ _ _ _ 
4 | _ _ _ _ _ _ _ _ 
3 | _ _ P _ _ _ _ P 
2 | P P _ P P P P R 
1 | R N B Q K B N _ 
-------------------
  | A B C D E F G H 

Turn of: black
Succesful move
g7g6
8 | R N B Q K B N R 
7 | P _ P P P _ _ P 
6 | _ _ _ _ _ P P _ 
5 | _ P _ _ _ _ _ _ 
4 | _ _ _ _ _ _ _ _ 
3 | _ _ P _ _ _ _ P 
2 | P P _ P P P P R 
1 | R N B Q K B N _ 
-------------------
  | A B C D E F G H 

Turn of: white
Succesful move
e2e4
8 | R N B Q K B N R 
7 | P _ P P P _ _ P 
6 | _ _ _ _ _ P P _ 
5 | _ P _ _ _ _ _ _ 
4 | _ _ _ _ P _ _ _ 
3 | _ _ P _ _ _ _ P 
2 | P P _ P _ P P R 
1 | R N B Q K B N _ 
-------------------
  | A B C D E F G H 

Turn of: black
Succesful move
a7a5
8 | R N B Q K B N R 
7 | _ _ P P P _ _ P 
6 | _ _ _ _ _ P P _ 
5 | P P _ _ _ _ _ _ 
4 | _ _ _ _ P _ _ _ 
3 | _ _ P _ _ _ _ P 
2 | P P _ P _ P P R 
1 | R N B Q K B N _ 
-------------------
  | A B C D E F G H 

Turn of: white
Succesful move
g1e2
8 | R N B Q K B N R 
7 | _ _ P P P _ _ P 
6 | _ _ _ _ _ P P _ 
5 | P P _ _ _ _ _ _ 
4 | _ _ _ _ P _ _ _ 
3 | _ _ P _ _ _ _ P 
2 | P P _ P N P P R 
1 | R N B Q K B _ _ 
-------------------
  | A B C D E F G H 

Turn of: black
Succesful move
e7e5
8 | R N B Q K B N R 
7 | _ _ P P _ _ _ P 
6 | _ _ _ _ _ P P _ 
5 | P P _ _ P _ _ _ 
4 | _ _ _ _ P _ _ _ 
3 | _ _ P _ _ _ _ P 
2 | P P _ P N P P R 
1 | R N B Q K B _ _ 
-------------------
  | A B C D E F G H 

Turn of: white
Succesful move
g2g3
8 | R N B Q K B N R 
7 | _ _ P P _ _ _ P 
6 | _ _ _ _ _ P P _ 
5 | P P _ _ P _ _ _ 
4 | _ _ _ _ P _ _ _ 
3 | _ _ P _ _ _ P P 
2 | P P _ P N P _ R 
1 | R N B Q K B _ _ 
-------------------
  | A B C D E F G H 

Turn of: black
Succesful move
c8a6
8 | R N _ Q K B N R 
7 | _ _ P P _ _ _ P 
6 | B _ _ _ _ P P _ 
5 | P P _ _ P _ _ _ 
4 | _ _ _ _ P _ _ _ 
3 | _ _ P _ _ _ P P 
2 | P P _ P N P _ R 
1 | R N B Q K B _ _ 
-------------------
  | A B C D E F G H 

Turn of: white
Succesful move
f2f3
8 | R N _ Q K B N R 
7 | _ _ P P _ _ _ P 
6 | B _ _ _ _ P P _ 
5 | P P _ _ P _ _ _ 
4 | _ _ _ _ P _ _ _ 
3 | _ _ P _ _ P P P 
2 | P P _ P N _ _ R 
1 | R N B Q K B _ _ 
-------------------
  | A B C D E F G H 

Turn of: black
Succesful move
b5b4
8 | R N _ Q K B N R 
7 | _ _ P P _ _ _ P 
6 | B _ _ _ _ P P _ 
5 | P _ _ _ P _ _ _ 
4 | _ P _ _ P _ _ _ 
3 | _ _ P _ _ P P P 
2 | P P _ P N _ _ R 
1 | R N B Q K B _ _ 
-------------------
  | A B C D E F G H 

Turn of: white
Succesful move
a2a4
8 | R N _ Q K B N R 
7 | _ _ P P _ _ _ P 
6 | B _ _ _ _ P P _ 
5 | P _ _ _ P _ _ _ 
4 | P P _ _ P _ _ _ 
3 | _ _ P _ _ P P P 
2 | _ P _ P N _ _ R 
1 | R N B Q K B _ _ 
-------------------
  | A B C D E F G H 

Turn of: black
Succesful move
b4a3
8 | R N _ Q K B N R 
7 | _ _ P P _ _ _ P 
6 | B _ _ _ _ P P _ 
5 | P _ _ _ P _ _ _ 
4 | _ _ _ _ P _ _ _ 
3 | P _ P _ _ P P P 
2 | _ P _ P N _ _ R 
1 | R N B Q K B _ _ 
-------------------
  | A B C D E F G H 

Turn of: white
Succesful move
e2d4
8 | R N _ Q K B N R 
7 | _ _ P P _ _ _ P 
6 | B _ _ _ _ P P _ 
5 | P _ _ _ P _ _ _ 
4 | _ _ _ N P _ _ _ 
3 | P _ P _ _ P P P 
2 | _ P _ P _ _ _ R 
1 | R N B Q K B _ _ 
-------------------
  | A B C D E F G H 

Turn of: black
Succesful move
a3b2
8 | R N _ Q K B N R 
7 | _ _ P P _ _ _ P 
6 | B _ _ _ _ P P _ 
5 | P _ _ _ P _ _ _ 
4 | _ _ _ N P _ _ _ 
3 | _ _ P _ _ P P P 
2 | _ P _ P _ _ _ R 
1 | R N B Q K B _ _ 
-------------------
  | A B C D E F G H 

Turn of: white
Succesful move
d2d3
8 | R N _ Q K B N R 
7 | _ _ P P _ _ _ P 
6 | B _ _ _ _ P P _ 
5 | P _ _ _ P _ _ _ 
4 | _ _ _ N P _ _ _ 
3 | _ _ P P _ P P P 
2 | _ P _ _ _ _ _ R 
1 | R N B Q K B _ _ 
-------------------
  | A B C D E F G H 

Turn of: black
Succesful move
b2a1q
8 | R N _ Q K B N R 
7 | _ _ P P _ _ _ P 
6 | B _ _ _ _ P P _ 
5 | P _ _ _ P _ _ _ 
4 | _ _ _ N P _ _ _ 
3 | _ _ P P _ P P P 
2 | _ _ _ _ _ _ _ R 
1 | Q N B Q K B _ _ 
-------------------
  | A B C D E F G H 

Turn of: white
Succesful move
d1d2
8 | R N _ Q K B N R 
7 | _ _ P P _ _ _ P 
6 | B _ _ _ _ P P _ 
5 | P _ _ _ P _ _ _ 
4 | _ _ _ N P _ _ _ 
3 | _ _ P P _ P P P 
2 | _ _ _ Q _ _ _ R 
1 | Q N B _ K B _ _ 
-------------------
  | A B C D E F G H 

Turn of: black
Succesful move
a1b1
8 | R N _ Q K B N R 
7 | _ _ P P _ _ _ P 
6 | B _ _ _ _ P P _ 
5 | P _ _ _ P _ _ _ 
4 | _ _ _ N P _ _ _ 
3 | _ _ P P _ P P P 
2 | _ _ _ Q _ _ _ R 
1 | _ Q B _ K B _ _ 
-------------------
  | A B C D E F G H 

Turn of: white
Succesful move
h2g2
8 | R N _ Q K B N R 
7 | _ _ P P _ _ _ P 
6 | B _ _ _ _ P P _ 
5 | P _ _ _ P _ _ _ 
4 | _ _ _ N P _ _ _ 
3 | _ _ P P _ P P P 
2 | _ _ _ Q _ _ R _ 
1 | _ Q B _ K B _ _ 
-------------------
  | A B C D E F G H 

Turn of: black
Succesful move
e5d4
8 | R N _ Q K B N R 
7 | _ _ P P _ _ _ P 
6 | B _ _ _ _ P P _ 
5 | P _ _ _ _ _ _ _ 
4 | _ _ _ P P _ _ _ 
3 | _ _ P P _ P P P 
2 | _ _ _ Q _ _ R _ 
1 | _ Q B _ K B _ _ 
-------------------
  | A B C D E F G H 

Turn of: white
Succesful move
d2a2
8 | R N _ Q K B N R 
7 | _ _ P P _ _ _ P 
6 | B _ _ _ _ P P _ 
5 | P _ _ _ _ _ _ _ 
4 | _ _ _ P P _ _ _ 
3 | _ _ P P _ P P P 
2 | Q _ _ _ _ _ R _ 
1 | _ Q B _ K B _ _ 
-------------------
  | A B C D E F G H 

Turn of: black
Succesful move
b1c1
8 | R N _ Q K B N R 
7 | _ _ P P _ _ _ P 
6 | B _ _ _ _ P P _ 
5 | P _ _ _ _ _ _ _ 
4 | _ _ _ P P _ _ _ 
3 | _ _ P P _ P P P 
2 | Q _ _ _ _ _ R _ 
1 | _ _ Q _ K B _ _ 
-------------------
  | A B C D E F G H 

Turn of: white
Succesful move
e1e2
8 | R N _ Q K B N R 
7 | _ _ P P _ _ _ P 
6 | B _ _ _ _ P P _ 
5 | P _ _ _ _ _ _ _ 
4 | _ _ _ P P _ _ _ 
3 | _ _ P P _ P P P 
2 | Q _ _ _ K _ R _ 
1 | _ _ Q _ _ B _ _ 
-------------------
  | A B C D E F G H 

Turn of: black
Succesful move
c1e3
8 | R N _ Q K B N R 
7 | _ _ P P _ _ _ P 
6 | B _ _ _ _ P P _ 
5 | P _ _ _ _ _ _ _ 
4 | _ _ _ P P _ _ _ 
3 | _ _ P P Q P P P 
2 | Q _ _ _ K _ R _ 
1 | _ _ _ _ _ B _ _ 
-------------------
  | A B C D E F G H 

Turn of: white
Succesful move
e2d1
8 | R N _ Q K B N R 
7 | _ _ P P _ _ _ P 
6 | B _ _ _ _ P P _ 
5 | P _ _ _ _ _ _ _ 
4 | _ _ _ P P _ _ _ 
3 | _ _ P P Q P P P 
2 | Q _ _ _ _ _ R _ 
1 | _ _ _ K _ B _ _ 
-------------------
  | A B C D E F G H 

Turn of: black
Succesful move
a6d3
8 | R N _ Q K B N R 
7 | _ _ P P _ _ _ P 
6 | _ _ _ _ _ P P _ 
5 | P _ _ _ _ _ _ _ 
4 | _ _ _ P P _ _ _ 
3 | _ _ P B Q P P P 
2 | Q _ _ _ _ _ R _ 
1 | _ _ _ K _ B _ _ 
-------------------
  | A B C D E F G H 

Turn of: white
Succesful move
f3f4
8 | R N _ Q K B N R 
7 | _ _ P P _ _ _ P 
6 | _ _ _ _ _ P P _ 
5 | P _ _ _ _ _ _ _ 
4 | _ _ _ P P P _ _ 
3 | _ _ P B Q _ P P 
2 | Q _ _ _ _ _ R _ 
1 | _ _ _ K _ B _ _ 
-------------------
  | A B C D E F G H 

Turn of: black
Succesful move
d3f1
8 | R N _ Q K B N R 
7 | _ _ P P _ _ _ P 
6 | _ _ _ _ _ P P _ 
5 | P _ _ _ _ _ _ _ 
4 | _ _ _ P P P _ _ 
3 | _ _ P _ Q _ P P 
2 | Q _ _ _ _ _ R _ 
1 | _ _ _ K _ B _ _ 
-------------------
  | A B C D E F G H 

Turn of: white
Succesful move
a2a1
8 | R N _ Q K B N R 
7 | _ _ P P _ _ _ P 
6 | _ _ _ _ _ P P _ 
5 | P _ _ _ _ _ _ _ 
4 | _ _ _ P P P _ _ 
3 | _ _ P _ Q _ P P 
2 | _ _ _ _ _ _ R _ 
1 | Q _ _ K _ B _ _ 
-------------------
  | A B C D E F G H 

Turn of: black
Succesful move
f1g2
8 | R N _ Q K B N R 
7 | _ _ P P _ _ _ P 
6 | _ _ _ _ _ P P _ 
5 | P _ _ _ _ _ _ _ 
4 | _ _ _ P P P _ _ 
3 | _ _ P _ Q _ P P 
2 | _ _ _ _ _ _ B _ 
1 | Q _ _ K _ _ _ _ 
-------------------
  | A B C D E F G H 

Turn of: white
Succesful move
e4e5
8 | R N _ Q K B N R 
7 | _ _ P P _ _ _ P 
6 | _ _ _ _ _ P P _ 
5 | P _ _ _ P _ _ _ 
4 | _ _ _ P _ P _ _ 
3 | _ _ P _ Q _ P P 
2 | _ _ _ _ _ _ B _ 
1 | Q _ _ K _ _ _ _ 
-------------------
  | A B C D E F G H 

Turn of: black
Succesful move
d4d3
8 | R N _ Q K B N R 
7 | _ _ P P _ _ _ P 
6 | _ _ _ _ _ P P _ 
5 | P _ _ _ P _ _ _ 
4 | _ _ _ _ _ P _ _ 
3 | _ _ P P Q _ P P 
2 | _ _ _ _ _ _ B _ 
1 | Q _ _ K _ _ _ _ 
-------------------
  | A B C D E F G H 

We are playing as White
Move history:
h2h3
f7f6
c2c3
b7b5
h1h2
g7g6
e2e4
a7a5
g1e2
e7e5
g2g3
c8a6
f2f3
b5b4
a2a4
b4a3
e2d4
a3b2
d2d3
b2a1q
d1d2
a1b1
h2g2
e5d4
d2a2
b1c1
e1e2
c1e3
e2d1
a6d3
f3f4
d3f1
a2a1
f1g2
e4e5
d4d3
8 | R N _ Q K B N R 
7 | _ _ P P _ _ _ P 
6 | _ _ _ _ _ P P _ 
5 | P _ _ _ P _ _ _ 
4 | _ _ _ _ _ P _ _ 
3 | _ _ P P Q _ P P 
2 | _ _ _ _ _ _ B _ 
1 | Q _ _ K _ _ _ _ 
-------------------
  | A B C D E F G H 

It is white's turn to play.
AI's move: e5f6
Move written: e5f6
[32;1m[Game] [0mPlayer's error code: 0
[32;1m[Game] [0mChecking move validity...
[32;1m[Board] [0mInitializing board...
[32;1m[Board] [0mLoading history file `championship/lizzie-iii-shallowcyan/history.csv`...
[32;1m[Board] [0mLoaded 36 move(s).
[32;1m[Board] [0mLoading move file `championship/lizzie-iii-shallowcyan/move.csv`...
[32;1m[Board] [0mWhite player is playing e5 to f6.
[32;1m[Board] [0m[5;1mWhite Pawn is taking Black Pawn.[0m
[32;1m[Board] [0m
[32;1m[Board] [0m    a b c d e f g h 
[32;1m[Board] [0m  -------------------
[32;1m[Board] [0m8 ||[30;1mr[0m|[30;1mk[0m|[7;1m [0m|[30;1mQ[0m|[30;1mK[0m|[30;1mb[0m|[30;1mk[0m|[30;1mr[0m|| 8
[32;1m[Board] [0m  -------------------
[32;1m[Board] [0m7 || |[7;1m [0m|[30;1mp[0m|[30;1mp[0m| |[7;1m [0m| |[30;1mp[0m|| 7
[32;1m[Board] [0m  -------------------
[32;1m[Board] [0m6 ||[7;1m [0m| |[7;1m [0m| |[7;1m [0m|[0;1mp[0m|[30;1mp[0m| || 6
[32;1m[Board] [0m  -------------------
[32;1m[Board] [0m5 ||[30;1mp[0m|[7;1m [0m| |[7;1m [0m| |[7;1m [0m| |[7;1m [0m|| 5
[32;1m[Board] [0m  -------------------
[32;1m[Board] [0m4 ||[7;1m [0m| |[7;1m [0m| |[7;1m [0m|[0;1mp[0m|[7;1m [0m| || 4
[32;1m[Board] [0m  -------------------
[32;1m[Board] [0m3 || |[7;1m [0m|[0;1mp[0m|[30;1mp[0m|[30;1mQ[0m|[7;1m [0m|[0;1mp[0m|[0;1mp[0m|| 3
[32;1m[Board] [0m  -------------------
[32;1m[Board] [0m2 ||[7;1m [0m| |[7;1m [0m| |[7;1m [0m| |[30;1mb[0m| || 2
[32;1m[Board] [0m  -------------------
[32;1m[Board] [0m1 ||[0;1mQ[0m|[7;1m [0m| |[0;1mK[0m| |[7;1m [0m| |[7;1m [0m|| 1
[32;1m[Board] [0m  -------------------
[32;1m[Board] [0m    a b c d e f g h
[32;1m[Board] [0m
[32;1m[Referee] [0mThis is the turn of the Black player...
8 [100m ♖ [43m ♘ [100m   [43m ♕ [100m ♔ [43m ♗ [100m ♘ [43m ♖ [40m
7 [43m   [100m   [43m ♙ [100m ♙ [43m   [100m   [43m   [100m ♙ [40m
6 [100m   [43m   [100m   [43m   [100m   [43m ♟ [100m ♙ [43m   [40m
5 [43m ♙ [100m   [43m   [100m   [43m   [100m   [43m   [100m   [40m
4 [100m   [43m   [100m   [43m   [100m   [43m ♟ [100m   [43m   [40m
3 [43m   [100m   [43m ♟ [100m ♙ [43m ♕ [100m   [43m ♟ [100m ♟ [40m
2 [100m   [43m   [100m   [43m   [100m   [43m   [100m ♗ [43m   [40m
1 [43m ♛ [100m   [43m   [100m ♚ [43m   [100m   [43m   [100m   [40m
   a  b  c  d  e  f  g  h  
[32;1m[Game] [0mPlayer's error code: 0
[32;1m[Game] [0mChecking move validity...
[32;1m[Board] [0mInitializing board...
[32;1m[Board] [0mLoading history file `championship/lizzie-iii-shallowcyan/history.csv`...
[32;1m[Board] [0mLoaded 37 move(s).
[32;1m[Board] [0mLoading move file `championship/lizzie-iii-shallowcyan/move.csv`...
[32;1m[Board] [0mBlack player is playing g2 to f3.
[32;1m[Board] [0m
[32;1m[Board] [0m    a b c d e f g h 
[32;1m[Board] [0m  -------------------
[32;1m[Board] [0m8 ||[30;1mr[0m|[30;1mk[0m|[7;1m [0m|[30;1mQ[0m|[30;1mK[0m|[30;1mb[0m|[30;1mk[0m|[30;1mr[0m|| 8
[32;1m[Board] [0m  -------------------
[32;1m[Board] [0m7 || |[7;1m [0m|[30;1mp[0m|[30;1mp[0m| |[7;1m [0m| |[30;1mp[0m|| 7
[32;1m[Board] [0m  -------------------
[32;1m[Board] [0m6 ||[7;1m [0m| |[7;1m [0m| |[7;1m [0m|[0;1mp[0m|[30;1mp[0m| || 6
[32;1m[Board] [0m  -------------------
[32;1m[Board] [0m5 ||[30;1mp[0m|[7;1m [0m| |[7;1m [0m| |[7;1m [0m| |[7;1m [0m|| 5
[32;1m[Board] [0m  -------------------
[32;1m[Board] [0m4 ||[7;1m [0m| |[7;1m [0m| |[7;1m [0m|[0;1mp[0m|[7;1m [0m| || 4
[32;1m[Board] [0m  -------------------
[32;1m[Board] [0m3 || |[7;1m [0m|[0;1mp[0m|[30;1mp[0m|[30;1mQ[0m|[30;1mb[0m|[0;1mp[0m|[0;1mp[0m|| 3
[32;1m[Board] [0m  -------------------
[32;1m[Board] [0m2 ||[7;1m [0m| |[7;1m [0m| |[7;1m [0m| |[7;1m [0m| || 2
[32;1m[Board] [0m  -------------------
[32;1m[Board] [0m1 ||[0;1mQ[0m|[7;1m [0m| |[0;1mK[0m| |[7;1m [0m| |[7;1m [0m|| 1
[32;1m[Board] [0m  -------------------
[32;1m[Board] [0m    a b c d e f g h
[32;1m[Board] [0m
[32;1m[Referee] [0mThis is the turn of the White player...
[32;1m[Board] [0m[33;1m[WARNING][0m [5;1mWhite King in checkmate![0m
[32;1m[Board] [0m[33;1m[WARNING][0m The Black player wins!
