[32;1m[Board] [0mInitializing board...
[32;1m[Board] [0m
[32;1m[Board] [0m    a b c d e f g h 
[32;1m[Board] [0m  -------------------
[32;1m[Board] [0m8 ||[30;1mr[0m|[30;1mk[0m|[30;1mb[0m|[30;1mQ[0m|[30;1mK[0m|[30;1mb[0m|[30;1mk[0m|[30;1mr[0m|| 8
[32;1m[Board] [0m  -------------------
[32;1m[Board] [0m7 ||[30;1mp[0m|[30;1mp[0m|[30;1mp[0m|[30;1mp[0m|[30;1mp[0m|[30;1mp[0m|[30;1mp[0m|[30;1mp[0m|| 7
[32;1m[Board] [0m  -------------------
[32;1m[Board] [0m6 ||[7;1m [0m| |[7;1m [0m| |[7;1m [0m| |[7;1m [0m| || 6
[32;1m[Board] [0m  -------------------
[32;1m[Board] [0m5 || |[7;1m [0m| |[7;1m [0m| |[7;1m [0m| |[7;1m [0m|| 5
[32;1m[Board] [0m  -------------------
[32;1m[Board] [0m4 ||[7;1m [0m| |[7;1m [0m| |[7;1m [0m| |[7;1m [0m| || 4
[32;1m[Board] [0m  -------------------
[32;1m[Board] [0m3 || |[7;1m [0m| |[7;1m [0m| |[7;1m [0m| |[7;1m [0m|| 3
[32;1m[Board] [0m  -------------------
[32;1m[Board] [0m2 ||[0;1mp[0m|[0;1mp[0m|[0;1mp[0m|[0;1mp[0m|[0;1mp[0m|[0;1mp[0m|[0;1mp[0m|[0;1mp[0m|| 2
[32;1m[Board] [0m  -------------------
[32;1m[Board] [0m1 ||[0;1mr[0m|[0;1mk[0m|[0;1mb[0m|[0;1mQ[0m|[0;1mK[0m|[0;1mb[0m|[0;1mk[0m|[0;1mr[0m|| 1
[32;1m[Board] [0m  -------------------
[32;1m[Board] [0m    a b c d e f g h
[32;1m[Board] [0m
[32;1m[Referee] [0mThis is the turn of the White player...
Input file: championship/lizzie-iii-remmato-iii/history.csv
Output file: championship/lizzie-iii-remmato-iii/move.csv
We are playing as White
Move history:
8 | R N B Q K B N R 
7 | P P P P P P P P 
6 | _ _ _ _ _ _ _ _ 
5 | _ _ _ _ _ _ _ _ 
4 | _ _ _ _ _ _ _ _ 
3 | _ _ _ _ _ _ _ _ 
2 | P P P P P P P P 
1 | R N B Q K B N R 
-------------------
  | A B C D E F G H 

It is white's turn to play.
AI's move: e2e4
Move written: e2e4
[32;1m[Game] [0mPlayer's error code: 0
[32;1m[Game] [0mChecking move validity...
[32;1m[Board] [0mInitializing board...
[32;1m[Board] [0mLoading history file `championship/lizzie-iii-remmato-iii/history.csv`...
[32;1m[Board] [0mLoaded 0 move(s).
[32;1m[Board] [0mLoading move file `championship/lizzie-iii-remmato-iii/move.csv`...
[32;1m[Board] [0mWhite player is playing e2 to e4.
[32;1m[Board] [0m
[32;1m[Board] [0m    a b c d e f g h 
[32;1m[Board] [0m  -------------------
[32;1m[Board] [0m8 ||[30;1mr[0m|[30;1mk[0m|[30;1mb[0m|[30;1mQ[0m|[30;1mK[0m|[30;1mb[0m|[30;1mk[0m|[30;1mr[0m|| 8
[32;1m[Board] [0m  -------------------
[32;1m[Board] [0m7 ||[30;1mp[0m|[30;1mp[0m|[30;1mp[0m|[30;1mp[0m|[30;1mp[0m|[30;1mp[0m|[30;1mp[0m|[30;1mp[0m|| 7
[32;1m[Board] [0m  -------------------
[32;1m[Board] [0m6 ||[7;1m [0m| |[7;1m [0m| |[7;1m [0m| |[7;1m [0m| || 6
[32;1m[Board] [0m  -------------------
[32;1m[Board] [0m5 || |[7;1m [0m| |[7;1m [0m| |[7;1m [0m| |[7;1m [0m|| 5
[32;1m[Board] [0m  -------------------
[32;1m[Board] [0m4 ||[7;1m [0m| |[7;1m [0m| |[0;1mp[0m| |[7;1m [0m| || 4
[32;1m[Board] [0m  -------------------
[32;1m[Board] [0m3 || |[7;1m [0m| |[7;1m [0m| |[7;1m [0m| |[7;1m [0m|| 3
[32;1m[Board] [0m  -------------------
[32;1m[Board] [0m2 ||[0;1mp[0m|[0;1mp[0m|[0;1mp[0m|[0;1mp[0m|[7;1m [0m|[0;1mp[0m|[0;1mp[0m|[0;1mp[0m|| 2
[32;1m[Board] [0m  -------------------
[32;1m[Board] [0m1 ||[0;1mr[0m|[0;1mk[0m|[0;1mb[0m|[0;1mQ[0m|[0;1mK[0m|[0;1mb[0m|[0;1mk[0m|[0;1mr[0m|| 1
[32;1m[Board] [0m  -------------------
[32;1m[Board] [0m    a b c d e f g h
[32;1m[Board] [0m
[32;1m[Referee] [0mThis is the turn of the Black player...
Error: /data/julien/Pro/git/teaching/x/2024/remmato-iii/build/bin/../resources/openings does not exist or is not a directory
[32;1m[Game] [0mPlayer's error code: 0
[32;1m[Game] [0mChecking move validity...
[32;1m[Board] [0mInitializing board...
[32;1m[Board] [0mLoading history file `championship/lizzie-iii-remmato-iii/history.csv`...
[32;1m[Board] [0mLoaded 1 move(s).
[32;1m[Board] [0mLoading move file `championship/lizzie-iii-remmato-iii/move.csv`...
[32;1m[Board] [0mBlack player is playing e7 to e5.
[32;1m[Board] [0m
[32;1m[Board] [0m    a b c d e f g h 
[32;1m[Board] [0m  -------------------
[32;1m[Board] [0m8 ||[30;1mr[0m|[30;1mk[0m|[30;1mb[0m|[30;1mQ[0m|[30;1mK[0m|[30;1mb[0m|[30;1mk[0m|[30;1mr[0m|| 8
[32;1m[Board] [0m  -------------------
[32;1m[Board] [0m7 ||[30;1mp[0m|[30;1mp[0m|[30;1mp[0m|[30;1mp[0m| |[30;1mp[0m|[30;1mp[0m|[30;1mp[0m|| 7
[32;1m[Board] [0m  -------------------
[32;1m[Board] [0m6 ||[7;1m [0m| |[7;1m [0m| |[7;1m [0m| |[7;1m [0m| || 6
[32;1m[Board] [0m  -------------------
[32;1m[Board] [0m5 || |[7;1m [0m| |[7;1m [0m|[30;1mp[0m|[7;1m [0m| |[7;1m [0m|| 5
[32;1m[Board] [0m  -------------------
[32;1m[Board] [0m4 ||[7;1m [0m| |[7;1m [0m| |[0;1mp[0m| |[7;1m [0m| || 4
[32;1m[Board] [0m  -------------------
[32;1m[Board] [0m3 || |[7;1m [0m| |[7;1m [0m| |[7;1m [0m| |[7;1m [0m|| 3
[32;1m[Board] [0m  -------------------
[32;1m[Board] [0m2 ||[0;1mp[0m|[0;1mp[0m|[0;1mp[0m|[0;1mp[0m|[7;1m [0m|[0;1mp[0m|[0;1mp[0m|[0;1mp[0m|| 2
[32;1m[Board] [0m  -------------------
[32;1m[Board] [0m1 ||[0;1mr[0m|[0;1mk[0m|[0;1mb[0m|[0;1mQ[0m|[0;1mK[0m|[0;1mb[0m|[0;1mk[0m|[0;1mr[0m|| 1
[32;1m[Board] [0m  -------------------
[32;1m[Board] [0m    a b c d e f g h
[32;1m[Board] [0m
[32;1m[Referee] [0mThis is the turn of the White player...
Input file: championship/lizzie-iii-remmato-iii/history.csv
Output file: championship/lizzie-iii-remmato-iii/move.csv
Turn of: white
Succesful move
e2e4
8 | R N B Q K B N R 
7 | P P P P P P P P 
6 | _ _ _ _ _ _ _ _ 
5 | _ _ _ _ _ _ _ _ 
4 | _ _ _ _ P _ _ _ 
3 | _ _ _ _ _ _ _ _ 
2 | P P P P _ P P P 
1 | R N B Q K B N R 
-------------------
  | A B C D E F G H 

Turn of: black
Succesful move
e7e5
8 | R N B Q K B N R 
7 | P P P P _ P P P 
6 | _ _ _ _ _ _ _ _ 
5 | _ _ _ _ P _ _ _ 
4 | _ _ _ _ P _ _ _ 
3 | _ _ _ _ _ _ _ _ 
2 | P P P P _ P P P 
1 | R N B Q K B N R 
-------------------
  | A B C D E F G H 

We are playing as White
Move history:
e2e4
e7e5
8 | R N B Q K B N R 
7 | P P P P _ P P P 
6 | _ _ _ _ _ _ _ _ 
5 | _ _ _ _ P _ _ _ 
4 | _ _ _ _ P _ _ _ 
3 | _ _ _ _ _ _ _ _ 
2 | P P P P _ P P P 
1 | R N B Q K B N R 
-------------------
  | A B C D E F G H 

It is white's turn to play.
AI's move: d1h5
Move written: d1h5
[32;1m[Game] [0mPlayer's error code: 0
[32;1m[Game] [0mChecking move validity...
[32;1m[Board] [0mInitializing board...
[32;1m[Board] [0mLoading history file `championship/lizzie-iii-remmato-iii/history.csv`...
[32;1m[Board] [0mLoaded 2 move(s).
[32;1m[Board] [0mLoading move file `championship/lizzie-iii-remmato-iii/move.csv`...
[32;1m[Board] [0mWhite player is playing d1 to h5.
[32;1m[Board] [0m
[32;1m[Board] [0m    a b c d e f g h 
[32;1m[Board] [0m  -------------------
[32;1m[Board] [0m8 ||[30;1mr[0m|[30;1mk[0m|[30;1mb[0m|[30;1mQ[0m|[30;1mK[0m|[30;1mb[0m|[30;1mk[0m|[30;1mr[0m|| 8
[32;1m[Board] [0m  -------------------
[32;1m[Board] [0m7 ||[30;1mp[0m|[30;1mp[0m|[30;1mp[0m|[30;1mp[0m| |[30;1mp[0m|[30;1mp[0m|[30;1mp[0m|| 7
[32;1m[Board] [0m  -------------------
[32;1m[Board] [0m6 ||[7;1m [0m| |[7;1m [0m| |[7;1m [0m| |[7;1m [0m| || 6
[32;1m[Board] [0m  -------------------
[32;1m[Board] [0m5 || |[7;1m [0m| |[7;1m [0m|[30;1mp[0m|[7;1m [0m| |[0;1mQ[0m|| 5
[32;1m[Board] [0m  -------------------
[32;1m[Board] [0m4 ||[7;1m [0m| |[7;1m [0m| |[0;1mp[0m| |[7;1m [0m| || 4
[32;1m[Board] [0m  -------------------
[32;1m[Board] [0m3 || |[7;1m [0m| |[7;1m [0m| |[7;1m [0m| |[7;1m [0m|| 3
[32;1m[Board] [0m  -------------------
[32;1m[Board] [0m2 ||[0;1mp[0m|[0;1mp[0m|[0;1mp[0m|[0;1mp[0m|[7;1m [0m|[0;1mp[0m|[0;1mp[0m|[0;1mp[0m|| 2
[32;1m[Board] [0m  -------------------
[32;1m[Board] [0m1 ||[0;1mr[0m|[0;1mk[0m|[0;1mb[0m|[7;1m [0m|[0;1mK[0m|[0;1mb[0m|[0;1mk[0m|[0;1mr[0m|| 1
[32;1m[Board] [0m  -------------------
[32;1m[Board] [0m    a b c d e f g h
[32;1m[Board] [0m
[32;1m[Referee] [0mThis is the turn of the Black player...
Error: /data/julien/Pro/git/teaching/x/2024/remmato-iii/build/bin/../resources/openings does not exist or is not a directory
[32;1m[Game] [0mPlayer's error code: 0
[32;1m[Game] [0mChecking move validity...
[32;1m[Board] [0mInitializing board...
[32;1m[Board] [0mLoading history file `championship/lizzie-iii-remmato-iii/history.csv`...
[32;1m[Board] [0mLoaded 3 move(s).
[32;1m[Board] [0mLoading move file `championship/lizzie-iii-remmato-iii/move.csv`...
[32;1m[Board] [0mBlack player is playing g8 to f6.
[32;1m[Board] [0m
[32;1m[Board] [0m    a b c d e f g h 
[32;1m[Board] [0m  -------------------
[32;1m[Board] [0m8 ||[30;1mr[0m|[30;1mk[0m|[30;1mb[0m|[30;1mQ[0m|[30;1mK[0m|[30;1mb[0m|[7;1m [0m|[30;1mr[0m|| 8
[32;1m[Board] [0m  -------------------
[32;1m[Board] [0m7 ||[30;1mp[0m|[30;1mp[0m|[30;1mp[0m|[30;1mp[0m| |[30;1mp[0m|[30;1mp[0m|[30;1mp[0m|| 7
[32;1m[Board] [0m  -------------------
[32;1m[Board] [0m6 ||[7;1m [0m| |[7;1m [0m| |[7;1m [0m|[30;1mk[0m|[7;1m [0m| || 6
[32;1m[Board] [0m  -------------------
[32;1m[Board] [0m5 || |[7;1m [0m| |[7;1m [0m|[30;1mp[0m|[7;1m [0m| |[0;1mQ[0m|| 5
[32;1m[Board] [0m  -------------------
[32;1m[Board] [0m4 ||[7;1m [0m| |[7;1m [0m| |[0;1mp[0m| |[7;1m [0m| || 4
[32;1m[Board] [0m  -------------------
[32;1m[Board] [0m3 || |[7;1m [0m| |[7;1m [0m| |[7;1m [0m| |[7;1m [0m|| 3
[32;1m[Board] [0m  -------------------
[32;1m[Board] [0m2 ||[0;1mp[0m|[0;1mp[0m|[0;1mp[0m|[0;1mp[0m|[7;1m [0m|[0;1mp[0m|[0;1mp[0m|[0;1mp[0m|| 2
[32;1m[Board] [0m  -------------------
[32;1m[Board] [0m1 ||[0;1mr[0m|[0;1mk[0m|[0;1mb[0m|[7;1m [0m|[0;1mK[0m|[0;1mb[0m|[0;1mk[0m|[0;1mr[0m|| 1
[32;1m[Board] [0m  -------------------
[32;1m[Board] [0m    a b c d e f g h
[32;1m[Board] [0m
[32;1m[Referee] [0mThis is the turn of the White player...
Input file: championship/lizzie-iii-remmato-iii/history.csv
Output file: championship/lizzie-iii-remmato-iii/move.csv
Turn of: white
Succesful move
e2e4
8 | R N B Q K B N R 
7 | P P P P P P P P 
6 | _ _ _ _ _ _ _ _ 
5 | _ _ _ _ _ _ _ _ 
4 | _ _ _ _ P _ _ _ 
3 | _ _ _ _ _ _ _ _ 
2 | P P P P _ P P P 
1 | R N B Q K B N R 
-------------------
  | A B C D E F G H 

Turn of: black
Succesful move
e7e5
8 | R N B Q K B N R 
7 | P P P P _ P P P 
6 | _ _ _ _ _ _ _ _ 
5 | _ _ _ _ P _ _ _ 
4 | _ _ _ _ P _ _ _ 
3 | _ _ _ _ _ _ _ _ 
2 | P P P P _ P P P 
1 | R N B Q K B N R 
-------------------
  | A B C D E F G H 

Turn of: white
Succesful move
d1h5
8 | R N B Q K B N R 
7 | P P P P _ P P P 
6 | _ _ _ _ _ _ _ _ 
5 | _ _ _ _ P _ _ Q 
4 | _ _ _ _ P _ _ _ 
3 | _ _ _ _ _ _ _ _ 
2 | P P P P _ P P P 
1 | R N B _ K B N R 
-------------------
  | A B C D E F G H 

Turn of: black
Succesful move
g8f6
8 | R N B Q K B _ R 
7 | P P P P _ P P P 
6 | _ _ _ _ _ N _ _ 
5 | _ _ _ _ P _ _ Q 
4 | _ _ _ _ P _ _ _ 
3 | _ _ _ _ _ _ _ _ 
2 | P P P P _ P P P 
1 | R N B _ K B N R 
-------------------
  | A B C D E F G H 

We are playing as White
Move history:
e2e4
e7e5
d1h5
g8f6
8 | R N B Q K B _ R 
7 | P P P P _ P P P 
6 | _ _ _ _ _ N _ _ 
5 | _ _ _ _ P _ _ Q 
4 | _ _ _ _ P _ _ _ 
3 | _ _ _ _ _ _ _ _ 
2 | P P P P _ P P P 
1 | R N B _ K B N R 
-------------------
  | A B C D E F G H 

It is white's turn to play.
AI's move: g1e2
Move written: g1e2
[32;1m[Game] [0mPlayer's error code: 0
[32;1m[Game] [0mChecking move validity...
[32;1m[Board] [0mInitializing board...
[32;1m[Board] [0mLoading history file `championship/lizzie-iii-remmato-iii/history.csv`...
[32;1m[Board] [0mLoaded 4 move(s).
[32;1m[Board] [0mLoading move file `championship/lizzie-iii-remmato-iii/move.csv`...
[32;1m[Board] [0mWhite player is playing g1 to e2.
[32;1m[Board] [0m
[32;1m[Board] [0m    a b c d e f g h 
[32;1m[Board] [0m  -------------------
[32;1m[Board] [0m8 ||[30;1mr[0m|[30;1mk[0m|[30;1mb[0m|[30;1mQ[0m|[30;1mK[0m|[30;1mb[0m|[7;1m [0m|[30;1mr[0m|| 8
[32;1m[Board] [0m  -------------------
[32;1m[Board] [0m7 ||[30;1mp[0m|[30;1mp[0m|[30;1mp[0m|[30;1mp[0m| |[30;1mp[0m|[30;1mp[0m|[30;1mp[0m|| 7
[32;1m[Board] [0m  -------------------
[32;1m[Board] [0m6 ||[7;1m [0m| |[7;1m [0m| |[7;1m [0m|[30;1mk[0m|[7;1m [0m| || 6
[32;1m[Board] [0m  -------------------
[32;1m[Board] [0m5 || |[7;1m [0m| |[7;1m [0m|[30;1mp[0m|[7;1m [0m| |[0;1mQ[0m|| 5
[32;1m[Board] [0m  -------------------
[32;1m[Board] [0m4 ||[7;1m [0m| |[7;1m [0m| |[0;1mp[0m| |[7;1m [0m| || 4
[32;1m[Board] [0m  -------------------
[32;1m[Board] [0m3 || |[7;1m [0m| |[7;1m [0m| |[7;1m [0m| |[7;1m [0m|| 3
[32;1m[Board] [0m  -------------------
[32;1m[Board] [0m2 ||[0;1mp[0m|[0;1mp[0m|[0;1mp[0m|[0;1mp[0m|[0;1mk[0m|[0;1mp[0m|[0;1mp[0m|[0;1mp[0m|| 2
[32;1m[Board] [0m  -------------------
[32;1m[Board] [0m1 ||[0;1mr[0m|[0;1mk[0m|[0;1mb[0m|[7;1m [0m|[0;1mK[0m|[0;1mb[0m| |[0;1mr[0m|| 1
[32;1m[Board] [0m  -------------------
[32;1m[Board] [0m    a b c d e f g h
[32;1m[Board] [0m
[32;1m[Referee] [0mThis is the turn of the Black player...
Error: /data/julien/Pro/git/teaching/x/2024/remmato-iii/build/bin/../resources/openings does not exist or is not a directory
[32;1m[Game] [0mPlayer's error code: 0
[32;1m[Game] [0mChecking move validity...
[32;1m[Board] [0mInitializing board...
[32;1m[Board] [0mLoading history file `championship/lizzie-iii-remmato-iii/history.csv`...
[32;1m[Board] [0mLoaded 5 move(s).
[32;1m[Board] [0mLoading move file `championship/lizzie-iii-remmato-iii/move.csv`...
[32;1m[Board] [0mBlack player is playing f6 to h5.
[32;1m[Board] [0m[5;1mBlack Knight is taking White Queen.[0m
[32;1m[Board] [0m
[32;1m[Board] [0m    a b c d e f g h 
[32;1m[Board] [0m  -------------------
[32;1m[Board] [0m8 ||[30;1mr[0m|[30;1mk[0m|[30;1mb[0m|[30;1mQ[0m|[30;1mK[0m|[30;1mb[0m|[7;1m [0m|[30;1mr[0m|| 8
[32;1m[Board] [0m  -------------------
[32;1m[Board] [0m7 ||[30;1mp[0m|[30;1mp[0m|[30;1mp[0m|[30;1mp[0m| |[30;1mp[0m|[30;1mp[0m|[30;1mp[0m|| 7
[32;1m[Board] [0m  -------------------
[32;1m[Board] [0m6 ||[7;1m [0m| |[7;1m [0m| |[7;1m [0m| |[7;1m [0m| || 6
[32;1m[Board] [0m  -------------------
[32;1m[Board] [0m5 || |[7;1m [0m| |[7;1m [0m|[30;1mp[0m|[7;1m [0m| |[30;1mk[0m|| 5
[32;1m[Board] [0m  -------------------
[32;1m[Board] [0m4 ||[7;1m [0m| |[7;1m [0m| |[0;1mp[0m| |[7;1m [0m| || 4
[32;1m[Board] [0m  -------------------
[32;1m[Board] [0m3 || |[7;1m [0m| |[7;1m [0m| |[7;1m [0m| |[7;1m [0m|| 3
[32;1m[Board] [0m  -------------------
[32;1m[Board] [0m2 ||[0;1mp[0m|[0;1mp[0m|[0;1mp[0m|[0;1mp[0m|[0;1mk[0m|[0;1mp[0m|[0;1mp[0m|[0;1mp[0m|| 2
[32;1m[Board] [0m  -------------------
[32;1m[Board] [0m1 ||[0;1mr[0m|[0;1mk[0m|[0;1mb[0m|[7;1m [0m|[0;1mK[0m|[0;1mb[0m| |[0;1mr[0m|| 1
[32;1m[Board] [0m  -------------------
[32;1m[Board] [0m    a b c d e f g h
[32;1m[Board] [0m
[32;1m[Referee] [0mThis is the turn of the White player...
Input file: championship/lizzie-iii-remmato-iii/history.csv
Output file: championship/lizzie-iii-remmato-iii/move.csv
Turn of: white
Succesful move
e2e4
8 | R N B Q K B N R 
7 | P P P P P P P P 
6 | _ _ _ _ _ _ _ _ 
5 | _ _ _ _ _ _ _ _ 
4 | _ _ _ _ P _ _ _ 
3 | _ _ _ _ _ _ _ _ 
2 | P P P P _ P P P 
1 | R N B Q K B N R 
-------------------
  | A B C D E F G H 

Turn of: black
Succesful move
e7e5
8 | R N B Q K B N R 
7 | P P P P _ P P P 
6 | _ _ _ _ _ _ _ _ 
5 | _ _ _ _ P _ _ _ 
4 | _ _ _ _ P _ _ _ 
3 | _ _ _ _ _ _ _ _ 
2 | P P P P _ P P P 
1 | R N B Q K B N R 
-------------------
  | A B C D E F G H 

Turn of: white
Succesful move
d1h5
8 | R N B Q K B N R 
7 | P P P P _ P P P 
6 | _ _ _ _ _ _ _ _ 
5 | _ _ _ _ P _ _ Q 
4 | _ _ _ _ P _ _ _ 
3 | _ _ _ _ _ _ _ _ 
2 | P P P P _ P P P 
1 | R N B _ K B N R 
-------------------
  | A B C D E F G H 

Turn of: black
Succesful move
g8f6
8 | R N B Q K B _ R 
7 | P P P P _ P P P 
6 | _ _ _ _ _ N _ _ 
5 | _ _ _ _ P _ _ Q 
4 | _ _ _ _ P _ _ _ 
3 | _ _ _ _ _ _ _ _ 
2 | P P P P _ P P P 
1 | R N B _ K B N R 
-------------------
  | A B C D E F G H 

Turn of: white
Succesful move
g1e2
8 | R N B Q K B _ R 
7 | P P P P _ P P P 
6 | _ _ _ _ _ N _ _ 
5 | _ _ _ _ P _ _ Q 
4 | _ _ _ _ P _ _ _ 
3 | _ _ _ _ _ _ _ _ 
2 | P P P P N P P P 
1 | R N B _ K B _ R 
-------------------
  | A B C D E F G H 

Turn of: black
Succesful move
f6h5
8 | R N B Q K B _ R 
7 | P P P P _ P P P 
6 | _ _ _ _ _ _ _ _ 
5 | _ _ _ _ P _ _ N 
4 | _ _ _ _ P _ _ _ 
3 | _ _ _ _ _ _ _ _ 
2 | P P P P N P P P 
1 | R N B _ K B _ R 
-------------------
  | A B C D E F G H 

We are playing as White
Move history:
e2e4
e7e5
d1h5
g8f6
g1e2
f6h5
8 | R N B Q K B _ R 
7 | P P P P _ P P P 
6 | _ _ _ _ _ _ _ _ 
5 | _ _ _ _ P _ _ N 
4 | _ _ _ _ P _ _ _ 
3 | _ _ _ _ _ _ _ _ 
2 | P P P P N P P P 
1 | R N B _ K B _ R 
-------------------
  | A B C D E F G H 

It is white's turn to play.
AI's move: b1c3
Move written: b1c3
[32;1m[Game] [0mPlayer's error code: 0
[32;1m[Game] [0mChecking move validity...
[32;1m[Board] [0mInitializing board...
[32;1m[Board] [0mLoading history file `championship/lizzie-iii-remmato-iii/history.csv`...
[32;1m[Board] [0mLoaded 6 move(s).
[32;1m[Board] [0mLoading move file `championship/lizzie-iii-remmato-iii/move.csv`...
[32;1m[Board] [0mWhite player is playing b1 to c3.
[32;1m[Board] [0m
[32;1m[Board] [0m    a b c d e f g h 
[32;1m[Board] [0m  -------------------
[32;1m[Board] [0m8 ||[30;1mr[0m|[30;1mk[0m|[30;1mb[0m|[30;1mQ[0m|[30;1mK[0m|[30;1mb[0m|[7;1m [0m|[30;1mr[0m|| 8
[32;1m[Board] [0m  -------------------
[32;1m[Board] [0m7 ||[30;1mp[0m|[30;1mp[0m|[30;1mp[0m|[30;1mp[0m| |[30;1mp[0m|[30;1mp[0m|[30;1mp[0m|| 7
[32;1m[Board] [0m  -------------------
[32;1m[Board] [0m6 ||[7;1m [0m| |[7;1m [0m| |[7;1m [0m| |[7;1m [0m| || 6
[32;1m[Board] [0m  -------------------
[32;1m[Board] [0m5 || |[7;1m [0m| |[7;1m [0m|[30;1mp[0m|[7;1m [0m| |[30;1mk[0m|| 5
[32;1m[Board] [0m  -------------------
[32;1m[Board] [0m4 ||[7;1m [0m| |[7;1m [0m| |[0;1mp[0m| |[7;1m [0m| || 4
[32;1m[Board] [0m  -------------------
[32;1m[Board] [0m3 || |[7;1m [0m|[0;1mk[0m|[7;1m [0m| |[7;1m [0m| |[7;1m [0m|| 3
[32;1m[Board] [0m  -------------------
[32;1m[Board] [0m2 ||[0;1mp[0m|[0;1mp[0m|[0;1mp[0m|[0;1mp[0m|[0;1mk[0m|[0;1mp[0m|[0;1mp[0m|[0;1mp[0m|| 2
[32;1m[Board] [0m  -------------------
[32;1m[Board] [0m1 ||[0;1mr[0m|[7;1m [0m|[0;1mb[0m|[7;1m [0m|[0;1mK[0m|[0;1mb[0m| |[0;1mr[0m|| 1
[32;1m[Board] [0m  -------------------
[32;1m[Board] [0m    a b c d e f g h
[32;1m[Board] [0m
[32;1m[Referee] [0mThis is the turn of the Black player...
Error: /data/julien/Pro/git/teaching/x/2024/remmato-iii/build/bin/../resources/openings does not exist or is not a directory
[32;1m[Game] [0mPlayer's error code: 0
[32;1m[Game] [0mChecking move validity...
[32;1m[Board] [0mInitializing board...
[32;1m[Board] [0mLoading history file `championship/lizzie-iii-remmato-iii/history.csv`...
[32;1m[Board] [0mLoaded 7 move(s).
[32;1m[Board] [0mLoading move file `championship/lizzie-iii-remmato-iii/move.csv`...
[32;1m[Board] [0mBlack player is playing a7 to a5.
[32;1m[Board] [0m
[32;1m[Board] [0m    a b c d e f g h 
[32;1m[Board] [0m  -------------------
[32;1m[Board] [0m8 ||[30;1mr[0m|[30;1mk[0m|[30;1mb[0m|[30;1mQ[0m|[30;1mK[0m|[30;1mb[0m|[7;1m [0m|[30;1mr[0m|| 8
[32;1m[Board] [0m  -------------------
[32;1m[Board] [0m7 || |[30;1mp[0m|[30;1mp[0m|[30;1mp[0m| |[30;1mp[0m|[30;1mp[0m|[30;1mp[0m|| 7
[32;1m[Board] [0m  -------------------
[32;1m[Board] [0m6 ||[7;1m [0m| |[7;1m [0m| |[7;1m [0m| |[7;1m [0m| || 6
[32;1m[Board] [0m  -------------------
[32;1m[Board] [0m5 ||[30;1mp[0m|[7;1m [0m| |[7;1m [0m|[30;1mp[0m|[7;1m [0m| |[30;1mk[0m|| 5
[32;1m[Board] [0m  -------------------
[32;1m[Board] [0m4 ||[7;1m [0m| |[7;1m [0m| |[0;1mp[0m| |[7;1m [0m| || 4
[32;1m[Board] [0m  -------------------
[32;1m[Board] [0m3 || |[7;1m [0m|[0;1mk[0m|[7;1m [0m| |[7;1m [0m| |[7;1m [0m|| 3
[32;1m[Board] [0m  -------------------
[32;1m[Board] [0m2 ||[0;1mp[0m|[0;1mp[0m|[0;1mp[0m|[0;1mp[0m|[0;1mk[0m|[0;1mp[0m|[0;1mp[0m|[0;1mp[0m|| 2
[32;1m[Board] [0m  -------------------
[32;1m[Board] [0m1 ||[0;1mr[0m|[7;1m [0m|[0;1mb[0m|[7;1m [0m|[0;1mK[0m|[0;1mb[0m| |[0;1mr[0m|| 1
[32;1m[Board] [0m  -------------------
[32;1m[Board] [0m    a b c d e f g h
[32;1m[Board] [0m
[32;1m[Referee] [0mThis is the turn of the White player...
Input file: championship/lizzie-iii-remmato-iii/history.csv
Output file: championship/lizzie-iii-remmato-iii/move.csv
Turn of: white
Succesful move
e2e4
8 | R N B Q K B N R 
7 | P P P P P P P P 
6 | _ _ _ _ _ _ _ _ 
5 | _ _ _ _ _ _ _ _ 
4 | _ _ _ _ P _ _ _ 
3 | _ _ _ _ _ _ _ _ 
2 | P P P P _ P P P 
1 | R N B Q K B N R 
-------------------
  | A B C D E F G H 

Turn of: black
Succesful move
e7e5
8 | R N B Q K B N R 
7 | P P P P _ P P P 
6 | _ _ _ _ _ _ _ _ 
5 | _ _ _ _ P _ _ _ 
4 | _ _ _ _ P _ _ _ 
3 | _ _ _ _ _ _ _ _ 
2 | P P P P _ P P P 
1 | R N B Q K B N R 
-------------------
  | A B C D E F G H 

Turn of: white
Succesful move
d1h5
8 | R N B Q K B N R 
7 | P P P P _ P P P 
6 | _ _ _ _ _ _ _ _ 
5 | _ _ _ _ P _ _ Q 
4 | _ _ _ _ P _ _ _ 
3 | _ _ _ _ _ _ _ _ 
2 | P P P P _ P P P 
1 | R N B _ K B N R 
-------------------
  | A B C D E F G H 

Turn of: black
Succesful move
g8f6
8 | R N B Q K B _ R 
7 | P P P P _ P P P 
6 | _ _ _ _ _ N _ _ 
5 | _ _ _ _ P _ _ Q 
4 | _ _ _ _ P _ _ _ 
3 | _ _ _ _ _ _ _ _ 
2 | P P P P _ P P P 
1 | R N B _ K B N R 
-------------------
  | A B C D E F G H 

Turn of: white
Succesful move
g1e2
8 | R N B Q K B _ R 
7 | P P P P _ P P P 
6 | _ _ _ _ _ N _ _ 
5 | _ _ _ _ P _ _ Q 
4 | _ _ _ _ P _ _ _ 
3 | _ _ _ _ _ _ _ _ 
2 | P P P P N P P P 
1 | R N B _ K B _ R 
-------------------
  | A B C D E F G H 

Turn of: black
Succesful move
f6h5
8 | R N B Q K B _ R 
7 | P P P P _ P P P 
6 | _ _ _ _ _ _ _ _ 
5 | _ _ _ _ P _ _ N 
4 | _ _ _ _ P _ _ _ 
3 | _ _ _ _ _ _ _ _ 
2 | P P P P N P P P 
1 | R N B _ K B _ R 
-------------------
  | A B C D E F G H 

Turn of: white
Succesful move
b1c3
8 | R N B Q K B _ R 
7 | P P P P _ P P P 
6 | _ _ _ _ _ _ _ _ 
5 | _ _ _ _ P _ _ N 
4 | _ _ _ _ P _ _ _ 
3 | _ _ N _ _ _ _ _ 
2 | P P P P N P P P 
1 | R _ B _ K B _ R 
-------------------
  | A B C D E F G H 

Turn of: black
Succesful move
a7a5
8 | R N B Q K B _ R 
7 | _ P P P _ P P P 
6 | _ _ _ _ _ _ _ _ 
5 | P _ _ _ P _ _ N 
4 | _ _ _ _ P _ _ _ 
3 | _ _ N _ _ _ _ _ 
2 | P P P P N P P P 
1 | R _ B _ K B _ R 
-------------------
  | A B C D E F G H 

We are playing as White
Move history:
e2e4
e7e5
d1h5
g8f6
g1e2
f6h5
b1c3
a7a5
8 | R N B Q K B _ R 
7 | _ P P P _ P P P 
6 | _ _ _ _ _ _ _ _ 
5 | P _ _ _ P _ _ N 
4 | _ _ _ _ P _ _ _ 
3 | _ _ N _ _ _ _ _ 
2 | P P P P N P P P 
1 | R _ B _ K B _ R 
-------------------
  | A B C D E F G H 

It is white's turn to play.
AI's move: d2d3
Move written: d2d3
[32;1m[Game] [0mPlayer's error code: 0
[32;1m[Game] [0mChecking move validity...
[32;1m[Board] [0mInitializing board...
[32;1m[Board] [0mLoading history file `championship/lizzie-iii-remmato-iii/history.csv`...
[32;1m[Board] [0mLoaded 8 move(s).
[32;1m[Board] [0mLoading move file `championship/lizzie-iii-remmato-iii/move.csv`...
[32;1m[Board] [0mWhite player is playing d2 to d3.
[32;1m[Board] [0m
[32;1m[Board] [0m    a b c d e f g h 
[32;1m[Board] [0m  -------------------
[32;1m[Board] [0m8 ||[30;1mr[0m|[30;1mk[0m|[30;1mb[0m|[30;1mQ[0m|[30;1mK[0m|[30;1mb[0m|[7;1m [0m|[30;1mr[0m|| 8
[32;1m[Board] [0m  -------------------
[32;1m[Board] [0m7 || |[30;1mp[0m|[30;1mp[0m|[30;1mp[0m| |[30;1mp[0m|[30;1mp[0m|[30;1mp[0m|| 7
[32;1m[Board] [0m  -------------------
[32;1m[Board] [0m6 ||[7;1m [0m| |[7;1m [0m| |[7;1m [0m| |[7;1m [0m| || 6
[32;1m[Board] [0m  -------------------
[32;1m[Board] [0m5 ||[30;1mp[0m|[7;1m [0m| |[7;1m [0m|[30;1mp[0m|[7;1m [0m| |[30;1mk[0m|| 5
[32;1m[Board] [0m  -------------------
[32;1m[Board] [0m4 ||[7;1m [0m| |[7;1m [0m| |[0;1mp[0m| |[7;1m [0m| || 4
[32;1m[Board] [0m  -------------------
[32;1m[Board] [0m3 || |[7;1m [0m|[0;1mk[0m|[0;1mp[0m| |[7;1m [0m| |[7;1m [0m|| 3
[32;1m[Board] [0m  -------------------
[32;1m[Board] [0m2 ||[0;1mp[0m|[0;1mp[0m|[0;1mp[0m| |[0;1mk[0m|[0;1mp[0m|[0;1mp[0m|[0;1mp[0m|| 2
[32;1m[Board] [0m  -------------------
[32;1m[Board] [0m1 ||[0;1mr[0m|[7;1m [0m|[0;1mb[0m|[7;1m [0m|[0;1mK[0m|[0;1mb[0m| |[0;1mr[0m|| 1
[32;1m[Board] [0m  -------------------
[32;1m[Board] [0m    a b c d e f g h
[32;1m[Board] [0m
[32;1m[Referee] [0mThis is the turn of the Black player...
Error: /data/julien/Pro/git/teaching/x/2024/remmato-iii/build/bin/../resources/openings does not exist or is not a directory
[32;1m[Game] [0mPlayer's error code: 0
[32;1m[Game] [0mChecking move validity...
[32;1m[Board] [0mInitializing board...
[32;1m[Board] [0mLoading history file `championship/lizzie-iii-remmato-iii/history.csv`...
[32;1m[Board] [0mLoaded 9 move(s).
[32;1m[Board] [0mLoading move file `championship/lizzie-iii-remmato-iii/move.csv`...
[32;1m[Board] [0mBlack player is playing d8 to h4.
[32;1m[Board] [0m
[32;1m[Board] [0m    a b c d e f g h 
[32;1m[Board] [0m  -------------------
[32;1m[Board] [0m8 ||[30;1mr[0m|[30;1mk[0m|[30;1mb[0m| |[30;1mK[0m|[30;1mb[0m|[7;1m [0m|[30;1mr[0m|| 8
[32;1m[Board] [0m  -------------------
[32;1m[Board] [0m7 || |[30;1mp[0m|[30;1mp[0m|[30;1mp[0m| |[30;1mp[0m|[30;1mp[0m|[30;1mp[0m|| 7
[32;1m[Board] [0m  -------------------
[32;1m[Board] [0m6 ||[7;1m [0m| |[7;1m [0m| |[7;1m [0m| |[7;1m [0m| || 6
[32;1m[Board] [0m  -------------------
[32;1m[Board] [0m5 ||[30;1mp[0m|[7;1m [0m| |[7;1m [0m|[30;1mp[0m|[7;1m [0m| |[30;1mk[0m|| 5
[32;1m[Board] [0m  -------------------
[32;1m[Board] [0m4 ||[7;1m [0m| |[7;1m [0m| |[0;1mp[0m| |[7;1m [0m|[30;1mQ[0m|| 4
[32;1m[Board] [0m  -------------------
[32;1m[Board] [0m3 || |[7;1m [0m|[0;1mk[0m|[0;1mp[0m| |[7;1m [0m| |[7;1m [0m|| 3
[32;1m[Board] [0m  -------------------
[32;1m[Board] [0m2 ||[0;1mp[0m|[0;1mp[0m|[0;1mp[0m| |[0;1mk[0m|[0;1mp[0m|[0;1mp[0m|[0;1mp[0m|| 2
[32;1m[Board] [0m  -------------------
[32;1m[Board] [0m1 ||[0;1mr[0m|[7;1m [0m|[0;1mb[0m|[7;1m [0m|[0;1mK[0m|[0;1mb[0m| |[0;1mr[0m|| 1
[32;1m[Board] [0m  -------------------
[32;1m[Board] [0m    a b c d e f g h
[32;1m[Board] [0m
[32;1m[Referee] [0mThis is the turn of the White player...
Input file: championship/lizzie-iii-remmato-iii/history.csv
Output file: championship/lizzie-iii-remmato-iii/move.csv
Turn of: white
Succesful move
e2e4
8 | R N B Q K B N R 
7 | P P P P P P P P 
6 | _ _ _ _ _ _ _ _ 
5 | _ _ _ _ _ _ _ _ 
4 | _ _ _ _ P _ _ _ 
3 | _ _ _ _ _ _ _ _ 
2 | P P P P _ P P P 
1 | R N B Q K B N R 
-------------------
  | A B C D E F G H 

Turn of: black
Succesful move
e7e5
8 | R N B Q K B N R 
7 | P P P P _ P P P 
6 | _ _ _ _ _ _ _ _ 
5 | _ _ _ _ P _ _ _ 
4 | _ _ _ _ P _ _ _ 
3 | _ _ _ _ _ _ _ _ 
2 | P P P P _ P P P 
1 | R N B Q K B N R 
-------------------
  | A B C D E F G H 

Turn of: white
Succesful move
d1h5
8 | R N B Q K B N R 
7 | P P P P _ P P P 
6 | _ _ _ _ _ _ _ _ 
5 | _ _ _ _ P _ _ Q 
4 | _ _ _ _ P _ _ _ 
3 | _ _ _ _ _ _ _ _ 
2 | P P P P _ P P P 
1 | R N B _ K B N R 
-------------------
  | A B C D E F G H 

Turn of: black
Succesful move
g8f6
8 | R N B Q K B _ R 
7 | P P P P _ P P P 
6 | _ _ _ _ _ N _ _ 
5 | _ _ _ _ P _ _ Q 
4 | _ _ _ _ P _ _ _ 
3 | _ _ _ _ _ _ _ _ 
2 | P P P P _ P P P 
1 | R N B _ K B N R 
-------------------
  | A B C D E F G H 

Turn of: white
Succesful move
g1e2
8 | R N B Q K B _ R 
7 | P P P P _ P P P 
6 | _ _ _ _ _ N _ _ 
5 | _ _ _ _ P _ _ Q 
4 | _ _ _ _ P _ _ _ 
3 | _ _ _ _ _ _ _ _ 
2 | P P P P N P P P 
1 | R N B _ K B _ R 
-------------------
  | A B C D E F G H 

Turn of: black
Succesful move
f6h5
8 | R N B Q K B _ R 
7 | P P P P _ P P P 
6 | _ _ _ _ _ _ _ _ 
5 | _ _ _ _ P _ _ N 
4 | _ _ _ _ P _ _ _ 
3 | _ _ _ _ _ _ _ _ 
2 | P P P P N P P P 
1 | R N B _ K B _ R 
-------------------
  | A B C D E F G H 

Turn of: white
Succesful move
b1c3
8 | R N B Q K B _ R 
7 | P P P P _ P P P 
6 | _ _ _ _ _ _ _ _ 
5 | _ _ _ _ P _ _ N 
4 | _ _ _ _ P _ _ _ 
3 | _ _ N _ _ _ _ _ 
2 | P P P P N P P P 
1 | R _ B _ K B _ R 
-------------------
  | A B C D E F G H 

Turn of: black
Succesful move
a7a5
8 | R N B Q K B _ R 
7 | _ P P P _ P P P 
6 | _ _ _ _ _ _ _ _ 
5 | P _ _ _ P _ _ N 
4 | _ _ _ _ P _ _ _ 
3 | _ _ N _ _ _ _ _ 
2 | P P P P N P P P 
1 | R _ B _ K B _ R 
-------------------
  | A B C D E F G H 

Turn of: white
Succesful move
d2d3
8 | R N B Q K B _ R 
7 | _ P P P _ P P P 
6 | _ _ _ _ _ _ _ _ 
5 | P _ _ _ P _ _ N 
4 | _ _ _ _ P _ _ _ 
3 | _ _ N P _ _ _ _ 
2 | P P P _ N P P P 
1 | R _ B _ K B _ R 
-------------------
  | A B C D E F G H 

Turn of: black
Succesful move
d8h4
8 | R N B _ K B _ R 
7 | _ P P P _ P P P 
6 | _ _ _ _ _ _ _ _ 
5 | P _ _ _ P _ _ N 
4 | _ _ _ _ P _ _ Q 
3 | _ _ N P _ _ _ _ 
2 | P P P _ N P P P 
1 | R _ B _ K B _ R 
-------------------
  | A B C D E F G H 

We are playing as White
Move history:
e2e4
e7e5
d1h5
g8f6
g1e2
f6h5
b1c3
a7a5
d2d3
d8h4
8 | R N B _ K B _ R 
7 | _ P P P _ P P P 
6 | _ _ _ _ _ _ _ _ 
5 | P _ _ _ P _ _ N 
4 | _ _ _ _ P _ _ Q 
3 | _ _ N P _ _ _ _ 
2 | P P P _ N P P P 
1 | R _ B _ K B _ R 
-------------------
  | A B C D E F G H 

It is white's turn to play.
AI's move: a1b1
Move written: a1b1
[32;1m[Game] [0mPlayer's error code: 0
[32;1m[Game] [0mChecking move validity...
[32;1m[Board] [0mInitializing board...
[32;1m[Board] [0mLoading history file `championship/lizzie-iii-remmato-iii/history.csv`...
[32;1m[Board] [0mLoaded 10 move(s).
[32;1m[Board] [0mLoading move file `championship/lizzie-iii-remmato-iii/move.csv`...
[32;1m[Board] [0mWhite player is playing a1 to b1.
[32;1m[Board] [0m
[32;1m[Board] [0m    a b c d e f g h 
[32;1m[Board] [0m  -------------------
[32;1m[Board] [0m8 ||[30;1mr[0m|[30;1mk[0m|[30;1mb[0m| |[30;1mK[0m|[30;1mb[0m|[7;1m [0m|[30;1mr[0m|| 8
[32;1m[Board] [0m  -------------------
[32;1m[Board] [0m7 || |[30;1mp[0m|[30;1mp[0m|[30;1mp[0m| |[30;1mp[0m|[30;1mp[0m|[30;1mp[0m|| 7
[32;1m[Board] [0m  -------------------
[32;1m[Board] [0m6 ||[7;1m [0m| |[7;1m [0m| |[7;1m [0m| |[7;1m [0m| || 6
[32;1m[Board] [0m  -------------------
[32;1m[Board] [0m5 ||[30;1mp[0m|[7;1m [0m| |[7;1m [0m|[30;1mp[0m|[7;1m [0m| |[30;1mk[0m|| 5
[32;1m[Board] [0m  -------------------
[32;1m[Board] [0m4 ||[7;1m [0m| |[7;1m [0m| |[0;1mp[0m| |[7;1m [0m|[30;1mQ[0m|| 4
[32;1m[Board] [0m  -------------------
[32;1m[Board] [0m3 || |[7;1m [0m|[0;1mk[0m|[0;1mp[0m| |[7;1m [0m| |[7;1m [0m|| 3
[32;1m[Board] [0m  -------------------
[32;1m[Board] [0m2 ||[0;1mp[0m|[0;1mp[0m|[0;1mp[0m| |[0;1mk[0m|[0;1mp[0m|[0;1mp[0m|[0;1mp[0m|| 2
[32;1m[Board] [0m  -------------------
[32;1m[Board] [0m1 || |[0;1mr[0m|[0;1mb[0m|[7;1m [0m|[0;1mK[0m|[0;1mb[0m| |[0;1mr[0m|| 1
[32;1m[Board] [0m  -------------------
[32;1m[Board] [0m    a b c d e f g h
[32;1m[Board] [0m
[32;1m[Referee] [0mThis is the turn of the Black player...
Error: /data/julien/Pro/git/teaching/x/2024/remmato-iii/build/bin/../resources/openings does not exist or is not a directory
[32;1m[Game] [0mPlayer's error code: 0
[32;1m[Game] [0mChecking move validity...
[32;1m[Board] [0mInitializing board...
[32;1m[Board] [0mLoading history file `championship/lizzie-iii-remmato-iii/history.csv`...
[32;1m[Board] [0mLoaded 11 move(s).
[32;1m[Board] [0mLoading move file `championship/lizzie-iii-remmato-iii/move.csv`...
[32;1m[Board] [0mBlack player is playing h4 to g4.
[32;1m[Board] [0m
[32;1m[Board] [0m    a b c d e f g h 
[32;1m[Board] [0m  -------------------
[32;1m[Board] [0m8 ||[30;1mr[0m|[30;1mk[0m|[30;1mb[0m| |[30;1mK[0m|[30;1mb[0m|[7;1m [0m|[30;1mr[0m|| 8
[32;1m[Board] [0m  -------------------
[32;1m[Board] [0m7 || |[30;1mp[0m|[30;1mp[0m|[30;1mp[0m| |[30;1mp[0m|[30;1mp[0m|[30;1mp[0m|| 7
[32;1m[Board] [0m  -------------------
[32;1m[Board] [0m6 ||[7;1m [0m| |[7;1m [0m| |[7;1m [0m| |[7;1m [0m| || 6
[32;1m[Board] [0m  -------------------
[32;1m[Board] [0m5 ||[30;1mp[0m|[7;1m [0m| |[7;1m [0m|[30;1mp[0m|[7;1m [0m| |[30;1mk[0m|| 5
[32;1m[Board] [0m  -------------------
[32;1m[Board] [0m4 ||[7;1m [0m| |[7;1m [0m| |[0;1mp[0m| |[30;1mQ[0m| || 4
[32;1m[Board] [0m  -------------------
[32;1m[Board] [0m3 || |[7;1m [0m|[0;1mk[0m|[0;1mp[0m| |[7;1m [0m| |[7;1m [0m|| 3
[32;1m[Board] [0m  -------------------
[32;1m[Board] [0m2 ||[0;1mp[0m|[0;1mp[0m|[0;1mp[0m| |[0;1mk[0m|[0;1mp[0m|[0;1mp[0m|[0;1mp[0m|| 2
[32;1m[Board] [0m  -------------------
[32;1m[Board] [0m1 || |[0;1mr[0m|[0;1mb[0m|[7;1m [0m|[0;1mK[0m|[0;1mb[0m| |[0;1mr[0m|| 1
[32;1m[Board] [0m  -------------------
[32;1m[Board] [0m    a b c d e f g h
[32;1m[Board] [0m
[32;1m[Referee] [0mThis is the turn of the White player...
Input file: championship/lizzie-iii-remmato-iii/history.csv
Output file: championship/lizzie-iii-remmato-iii/move.csv
Turn of: white
Succesful move
e2e4
8 | R N B Q K B N R 
7 | P P P P P P P P 
6 | _ _ _ _ _ _ _ _ 
5 | _ _ _ _ _ _ _ _ 
4 | _ _ _ _ P _ _ _ 
3 | _ _ _ _ _ _ _ _ 
2 | P P P P _ P P P 
1 | R N B Q K B N R 
-------------------
  | A B C D E F G H 

Turn of: black
Succesful move
e7e5
8 | R N B Q K B N R 
7 | P P P P _ P P P 
6 | _ _ _ _ _ _ _ _ 
5 | _ _ _ _ P _ _ _ 
4 | _ _ _ _ P _ _ _ 
3 | _ _ _ _ _ _ _ _ 
2 | P P P P _ P P P 
1 | R N B Q K B N R 
-------------------
  | A B C D E F G H 

Turn of: white
Succesful move
d1h5
8 | R N B Q K B N R 
7 | P P P P _ P P P 
6 | _ _ _ _ _ _ _ _ 
5 | _ _ _ _ P _ _ Q 
4 | _ _ _ _ P _ _ _ 
3 | _ _ _ _ _ _ _ _ 
2 | P P P P _ P P P 
1 | R N B _ K B N R 
-------------------
  | A B C D E F G H 

Turn of: black
Succesful move
g8f6
8 | R N B Q K B _ R 
7 | P P P P _ P P P 
6 | _ _ _ _ _ N _ _ 
5 | _ _ _ _ P _ _ Q 
4 | _ _ _ _ P _ _ _ 
3 | _ _ _ _ _ _ _ _ 
2 | P P P P _ P P P 
1 | R N B _ K B N R 
-------------------
  | A B C D E F G H 

Turn of: white
Succesful move
g1e2
8 | R N B Q K B _ R 
7 | P P P P _ P P P 
6 | _ _ _ _ _ N _ _ 
5 | _ _ _ _ P _ _ Q 
4 | _ _ _ _ P _ _ _ 
3 | _ _ _ _ _ _ _ _ 
2 | P P P P N P P P 
1 | R N B _ K B _ R 
-------------------
  | A B C D E F G H 

Turn of: black
Succesful move
f6h5
8 | R N B Q K B _ R 
7 | P P P P _ P P P 
6 | _ _ _ _ _ _ _ _ 
5 | _ _ _ _ P _ _ N 
4 | _ _ _ _ P _ _ _ 
3 | _ _ _ _ _ _ _ _ 
2 | P P P P N P P P 
1 | R N B _ K B _ R 
-------------------
  | A B C D E F G H 

Turn of: white
Succesful move
b1c3
8 | R N B Q K B _ R 
7 | P P P P _ P P P 
6 | _ _ _ _ _ _ _ _ 
5 | _ _ _ _ P _ _ N 
4 | _ _ _ _ P _ _ _ 
3 | _ _ N _ _ _ _ _ 
2 | P P P P N P P P 
1 | R _ B _ K B _ R 
-------------------
  | A B C D E F G H 

Turn of: black
Succesful move
a7a5
8 | R N B Q K B _ R 
7 | _ P P P _ P P P 
6 | _ _ _ _ _ _ _ _ 
5 | P _ _ _ P _ _ N 
4 | _ _ _ _ P _ _ _ 
3 | _ _ N _ _ _ _ _ 
2 | P P P P N P P P 
1 | R _ B _ K B _ R 
-------------------
  | A B C D E F G H 

Turn of: white
Succesful move
d2d3
8 | R N B Q K B _ R 
7 | _ P P P _ P P P 
6 | _ _ _ _ _ _ _ _ 
5 | P _ _ _ P _ _ N 
4 | _ _ _ _ P _ _ _ 
3 | _ _ N P _ _ _ _ 
2 | P P P _ N P P P 
1 | R _ B _ K B _ R 
-------------------
  | A B C D E F G H 

Turn of: black
Succesful move
d8h4
8 | R N B _ K B _ R 
7 | _ P P P _ P P P 
6 | _ _ _ _ _ _ _ _ 
5 | P _ _ _ P _ _ N 
4 | _ _ _ _ P _ _ Q 
3 | _ _ N P _ _ _ _ 
2 | P P P _ N P P P 
1 | R _ B _ K B _ R 
-------------------
  | A B C D E F G H 

Turn of: white
Succesful move
a1b1
8 | R N B _ K B _ R 
7 | _ P P P _ P P P 
6 | _ _ _ _ _ _ _ _ 
5 | P _ _ _ P _ _ N 
4 | _ _ _ _ P _ _ Q 
3 | _ _ N P _ _ _ _ 
2 | P P P _ N P P P 
1 | _ R B _ K B _ R 
-------------------
  | A B C D E F G H 

Turn of: black
Succesful move
h4g4
8 | R N B _ K B _ R 
7 | _ P P P _ P P P 
6 | _ _ _ _ _ _ _ _ 
5 | P _ _ _ P _ _ N 
4 | _ _ _ _ P _ Q _ 
3 | _ _ N P _ _ _ _ 
2 | P P P _ N P P P 
1 | _ R B _ K B _ R 
-------------------
  | A B C D E F G H 

We are playing as White
Move history:
e2e4
e7e5
d1h5
g8f6
g1e2
f6h5
b1c3
a7a5
d2d3
d8h4
a1b1
h4g4
8 | R N B _ K B _ R 
7 | _ P P P _ P P P 
6 | _ _ _ _ _ _ _ _ 
5 | P _ _ _ P _ _ N 
4 | _ _ _ _ P _ Q _ 
3 | _ _ N P _ _ _ _ 
2 | P P P _ N P P P 
1 | _ R B _ K B _ R 
-------------------
  | A B C D E F G H 

It is white's turn to play.
AI's move: e2f4
Move written: e2f4
[32;1m[Game] [0mPlayer's error code: 0
[32;1m[Game] [0mChecking move validity...
[32;1m[Board] [0mInitializing board...
[32;1m[Board] [0mLoading history file `championship/lizzie-iii-remmato-iii/history.csv`...
[32;1m[Board] [0mLoaded 12 move(s).
[32;1m[Board] [0mLoading move file `championship/lizzie-iii-remmato-iii/move.csv`...
[32;1m[Board] [0mWhite player is playing e2 to f4.
[32;1m[Board] [0m
[32;1m[Board] [0m    a b c d e f g h 
[32;1m[Board] [0m  -------------------
[32;1m[Board] [0m8 ||[30;1mr[0m|[30;1mk[0m|[30;1mb[0m| |[30;1mK[0m|[30;1mb[0m|[7;1m [0m|[30;1mr[0m|| 8
[32;1m[Board] [0m  -------------------
[32;1m[Board] [0m7 || |[30;1mp[0m|[30;1mp[0m|[30;1mp[0m| |[30;1mp[0m|[30;1mp[0m|[30;1mp[0m|| 7
[32;1m[Board] [0m  -------------------
[32;1m[Board] [0m6 ||[7;1m [0m| |[7;1m [0m| |[7;1m [0m| |[7;1m [0m| || 6
[32;1m[Board] [0m  -------------------
[32;1m[Board] [0m5 ||[30;1mp[0m|[7;1m [0m| |[7;1m [0m|[30;1mp[0m|[7;1m [0m| |[30;1mk[0m|| 5
[32;1m[Board] [0m  -------------------
[32;1m[Board] [0m4 ||[7;1m [0m| |[7;1m [0m| |[0;1mp[0m|[0;1mk[0m|[30;1mQ[0m| || 4
[32;1m[Board] [0m  -------------------
[32;1m[Board] [0m3 || |[7;1m [0m|[0;1mk[0m|[0;1mp[0m| |[7;1m [0m| |[7;1m [0m|| 3
[32;1m[Board] [0m  -------------------
[32;1m[Board] [0m2 ||[0;1mp[0m|[0;1mp[0m|[0;1mp[0m| |[7;1m [0m|[0;1mp[0m|[0;1mp[0m|[0;1mp[0m|| 2
[32;1m[Board] [0m  -------------------
[32;1m[Board] [0m1 || |[0;1mr[0m|[0;1mb[0m|[7;1m [0m|[0;1mK[0m|[0;1mb[0m| |[0;1mr[0m|| 1
[32;1m[Board] [0m  -------------------
[32;1m[Board] [0m    a b c d e f g h
[32;1m[Board] [0m
[32;1m[Referee] [0mThis is the turn of the Black player...
Error: /data/julien/Pro/git/teaching/x/2024/remmato-iii/build/bin/../resources/openings does not exist or is not a directory
[32;1m[Game] [0mPlayer's error code: 0
[32;1m[Game] [0mChecking move validity...
[32;1m[Board] [0mInitializing board...
[32;1m[Board] [0mLoading history file `championship/lizzie-iii-remmato-iii/history.csv`...
[32;1m[Board] [0mLoaded 13 move(s).
[32;1m[Board] [0mLoading move file `championship/lizzie-iii-remmato-iii/move.csv`...
[32;1m[Board] [0mBlack player is playing e5 to f4.
[32;1m[Board] [0m[5;1mBlack Pawn is taking White Knight.[0m
[32;1m[Board] [0m
[32;1m[Board] [0m    a b c d e f g h 
[32;1m[Board] [0m  -------------------
[32;1m[Board] [0m8 ||[30;1mr[0m|[30;1mk[0m|[30;1mb[0m| |[30;1mK[0m|[30;1mb[0m|[7;1m [0m|[30;1mr[0m|| 8
[32;1m[Board] [0m  -------------------
[32;1m[Board] [0m7 || |[30;1mp[0m|[30;1mp[0m|[30;1mp[0m| |[30;1mp[0m|[30;1mp[0m|[30;1mp[0m|| 7
[32;1m[Board] [0m  -------------------
[32;1m[Board] [0m6 ||[7;1m [0m| |[7;1m [0m| |[7;1m [0m| |[7;1m [0m| || 6
[32;1m[Board] [0m  -------------------
[32;1m[Board] [0m5 ||[30;1mp[0m|[7;1m [0m| |[7;1m [0m| |[7;1m [0m| |[30;1mk[0m|| 5
[32;1m[Board] [0m  -------------------
[32;1m[Board] [0m4 ||[7;1m [0m| |[7;1m [0m| |[0;1mp[0m|[30;1mp[0m|[30;1mQ[0m| || 4
[32;1m[Board] [0m  -------------------
[32;1m[Board] [0m3 || |[7;1m [0m|[0;1mk[0m|[0;1mp[0m| |[7;1m [0m| |[7;1m [0m|| 3
[32;1m[Board] [0m  -------------------
[32;1m[Board] [0m2 ||[0;1mp[0m|[0;1mp[0m|[0;1mp[0m| |[7;1m [0m|[0;1mp[0m|[0;1mp[0m|[0;1mp[0m|| 2
[32;1m[Board] [0m  -------------------
[32;1m[Board] [0m1 || |[0;1mr[0m|[0;1mb[0m|[7;1m [0m|[0;1mK[0m|[0;1mb[0m| |[0;1mr[0m|| 1
[32;1m[Board] [0m  -------------------
[32;1m[Board] [0m    a b c d e f g h
[32;1m[Board] [0m
[32;1m[Referee] [0mThis is the turn of the White player...
Input file: championship/lizzie-iii-remmato-iii/history.csv
Output file: championship/lizzie-iii-remmato-iii/move.csv
Turn of: white
Succesful move
e2e4
8 | R N B Q K B N R 
7 | P P P P P P P P 
6 | _ _ _ _ _ _ _ _ 
5 | _ _ _ _ _ _ _ _ 
4 | _ _ _ _ P _ _ _ 
3 | _ _ _ _ _ _ _ _ 
2 | P P P P _ P P P 
1 | R N B Q K B N R 
-------------------
  | A B C D E F G H 

Turn of: black
Succesful move
e7e5
8 | R N B Q K B N R 
7 | P P P P _ P P P 
6 | _ _ _ _ _ _ _ _ 
5 | _ _ _ _ P _ _ _ 
4 | _ _ _ _ P _ _ _ 
3 | _ _ _ _ _ _ _ _ 
2 | P P P P _ P P P 
1 | R N B Q K B N R 
-------------------
  | A B C D E F G H 

Turn of: white
Succesful move
d1h5
8 | R N B Q K B N R 
7 | P P P P _ P P P 
6 | _ _ _ _ _ _ _ _ 
5 | _ _ _ _ P _ _ Q 
4 | _ _ _ _ P _ _ _ 
3 | _ _ _ _ _ _ _ _ 
2 | P P P P _ P P P 
1 | R N B _ K B N R 
-------------------
  | A B C D E F G H 

Turn of: black
Succesful move
g8f6
8 | R N B Q K B _ R 
7 | P P P P _ P P P 
6 | _ _ _ _ _ N _ _ 
5 | _ _ _ _ P _ _ Q 
4 | _ _ _ _ P _ _ _ 
3 | _ _ _ _ _ _ _ _ 
2 | P P P P _ P P P 
1 | R N B _ K B N R 
-------------------
  | A B C D E F G H 

Turn of: white
Succesful move
g1e2
8 | R N B Q K B _ R 
7 | P P P P _ P P P 
6 | _ _ _ _ _ N _ _ 
5 | _ _ _ _ P _ _ Q 
4 | _ _ _ _ P _ _ _ 
3 | _ _ _ _ _ _ _ _ 
2 | P P P P N P P P 
1 | R N B _ K B _ R 
-------------------
  | A B C D E F G H 

Turn of: black
Succesful move
f6h5
8 | R N B Q K B _ R 
7 | P P P P _ P P P 
6 | _ _ _ _ _ _ _ _ 
5 | _ _ _ _ P _ _ N 
4 | _ _ _ _ P _ _ _ 
3 | _ _ _ _ _ _ _ _ 
2 | P P P P N P P P 
1 | R N B _ K B _ R 
-------------------
  | A B C D E F G H 

Turn of: white
Succesful move
b1c3
8 | R N B Q K B _ R 
7 | P P P P _ P P P 
6 | _ _ _ _ _ _ _ _ 
5 | _ _ _ _ P _ _ N 
4 | _ _ _ _ P _ _ _ 
3 | _ _ N _ _ _ _ _ 
2 | P P P P N P P P 
1 | R _ B _ K B _ R 
-------------------
  | A B C D E F G H 

Turn of: black
Succesful move
a7a5
8 | R N B Q K B _ R 
7 | _ P P P _ P P P 
6 | _ _ _ _ _ _ _ _ 
5 | P _ _ _ P _ _ N 
4 | _ _ _ _ P _ _ _ 
3 | _ _ N _ _ _ _ _ 
2 | P P P P N P P P 
1 | R _ B _ K B _ R 
-------------------
  | A B C D E F G H 

Turn of: white
Succesful move
d2d3
8 | R N B Q K B _ R 
7 | _ P P P _ P P P 
6 | _ _ _ _ _ _ _ _ 
5 | P _ _ _ P _ _ N 
4 | _ _ _ _ P _ _ _ 
3 | _ _ N P _ _ _ _ 
2 | P P P _ N P P P 
1 | R _ B _ K B _ R 
-------------------
  | A B C D E F G H 

Turn of: black
Succesful move
d8h4
8 | R N B _ K B _ R 
7 | _ P P P _ P P P 
6 | _ _ _ _ _ _ _ _ 
5 | P _ _ _ P _ _ N 
4 | _ _ _ _ P _ _ Q 
3 | _ _ N P _ _ _ _ 
2 | P P P _ N P P P 
1 | R _ B _ K B _ R 
-------------------
  | A B C D E F G H 

Turn of: white
Succesful move
a1b1
8 | R N B _ K B _ R 
7 | _ P P P _ P P P 
6 | _ _ _ _ _ _ _ _ 
5 | P _ _ _ P _ _ N 
4 | _ _ _ _ P _ _ Q 
3 | _ _ N P _ _ _ _ 
2 | P P P _ N P P P 
1 | _ R B _ K B _ R 
-------------------
  | A B C D E F G H 

Turn of: black
Succesful move
h4g4
8 | R N B _ K B _ R 
7 | _ P P P _ P P P 
6 | _ _ _ _ _ _ _ _ 
5 | P _ _ _ P _ _ N 
4 | _ _ _ _ P _ Q _ 
3 | _ _ N P _ _ _ _ 
2 | P P P _ N P P P 
1 | _ R B _ K B _ R 
-------------------
  | A B C D E F G H 

Turn of: white
Succesful move
e2f4
8 | R N B _ K B _ R 
7 | _ P P P _ P P P 
6 | _ _ _ _ _ _ _ _ 
5 | P _ _ _ P _ _ N 
4 | _ _ _ _ P N Q _ 
3 | _ _ N P _ _ _ _ 
2 | P P P _ _ P P P 
1 | _ R B _ K B _ R 
-------------------
  | A B C D E F G H 

Turn of: black
Succesful move
e5f4
8 | R N B _ K B _ R 
7 | _ P P P _ P P P 
6 | _ _ _ _ _ _ _ _ 
5 | P _ _ _ _ _ _ N 
4 | _ _ _ _ P P Q _ 
3 | _ _ N P _ _ _ _ 
2 | P P P _ _ P P P 
1 | _ R B _ K B _ R 
-------------------
  | A B C D E F G H 

We are playing as White
Move history:
e2e4
e7e5
d1h5
g8f6
g1e2
f6h5
b1c3
a7a5
d2d3
d8h4
a1b1
h4g4
e2f4
e5f4
8 | R N B _ K B _ R 
7 | _ P P P _ P P P 
6 | _ _ _ _ _ _ _ _ 
5 | P _ _ _ _ _ _ N 
4 | _ _ _ _ P P Q _ 
3 | _ _ N P _ _ _ _ 
2 | P P P _ _ P P P 
1 | _ R B _ K B _ R 
-------------------
  | A B C D E F G H 

It is white's turn to play.
AI's move: c1d2
Move written: c1d2
[32;1m[Game] [0mPlayer's error code: 0
[32;1m[Game] [0mChecking move validity...
[32;1m[Board] [0mInitializing board...
[32;1m[Board] [0mLoading history file `championship/lizzie-iii-remmato-iii/history.csv`...
[32;1m[Board] [0mLoaded 14 move(s).
[32;1m[Board] [0mLoading move file `championship/lizzie-iii-remmato-iii/move.csv`...
[32;1m[Board] [0mWhite player is playing c1 to d2.
[32;1m[Board] [0m
[32;1m[Board] [0m    a b c d e f g h 
[32;1m[Board] [0m  -------------------
[32;1m[Board] [0m8 ||[30;1mr[0m|[30;1mk[0m|[30;1mb[0m| |[30;1mK[0m|[30;1mb[0m|[7;1m [0m|[30;1mr[0m|| 8
[32;1m[Board] [0m  -------------------
[32;1m[Board] [0m7 || |[30;1mp[0m|[30;1mp[0m|[30;1mp[0m| |[30;1mp[0m|[30;1mp[0m|[30;1mp[0m|| 7
[32;1m[Board] [0m  -------------------
[32;1m[Board] [0m6 ||[7;1m [0m| |[7;1m [0m| |[7;1m [0m| |[7;1m [0m| || 6
[32;1m[Board] [0m  -------------------
[32;1m[Board] [0m5 ||[30;1mp[0m|[7;1m [0m| |[7;1m [0m| |[7;1m [0m| |[30;1mk[0m|| 5
[32;1m[Board] [0m  -------------------
[32;1m[Board] [0m4 ||[7;1m [0m| |[7;1m [0m| |[0;1mp[0m|[30;1mp[0m|[30;1mQ[0m| || 4
[32;1m[Board] [0m  -------------------
[32;1m[Board] [0m3 || |[7;1m [0m|[0;1mk[0m|[0;1mp[0m| |[7;1m [0m| |[7;1m [0m|| 3
[32;1m[Board] [0m  -------------------
[32;1m[Board] [0m2 ||[0;1mp[0m|[0;1mp[0m|[0;1mp[0m|[0;1mb[0m|[7;1m [0m|[0;1mp[0m|[0;1mp[0m|[0;1mp[0m|| 2
[32;1m[Board] [0m  -------------------
[32;1m[Board] [0m1 || |[0;1mr[0m| |[7;1m [0m|[0;1mK[0m|[0;1mb[0m| |[0;1mr[0m|| 1
[32;1m[Board] [0m  -------------------
[32;1m[Board] [0m    a b c d e f g h
[32;1m[Board] [0m
[32;1m[Referee] [0mThis is the turn of the Black player...
Error: /data/julien/Pro/git/teaching/x/2024/remmato-iii/build/bin/../resources/openings does not exist or is not a directory
[32;1m[Game] [0mPlayer's error code: 0
[32;1m[Game] [0mChecking move validity...
[32;1m[Board] [0mInitializing board...
[32;1m[Board] [0mLoading history file `championship/lizzie-iii-remmato-iii/history.csv`...
[32;1m[Board] [0mLoaded 15 move(s).
[32;1m[Board] [0mLoading move file `championship/lizzie-iii-remmato-iii/move.csv`...
[32;1m[Board] [0mBlack player is playing b7 to b6.
[32;1m[Board] [0m
[32;1m[Board] [0m    a b c d e f g h 
[32;1m[Board] [0m  -------------------
[32;1m[Board] [0m8 ||[30;1mr[0m|[30;1mk[0m|[30;1mb[0m| |[30;1mK[0m|[30;1mb[0m|[7;1m [0m|[30;1mr[0m|| 8
[32;1m[Board] [0m  -------------------
[32;1m[Board] [0m7 || |[7;1m [0m|[30;1mp[0m|[30;1mp[0m| |[30;1mp[0m|[30;1mp[0m|[30;1mp[0m|| 7
[32;1m[Board] [0m  -------------------
[32;1m[Board] [0m6 ||[7;1m [0m|[30;1mp[0m|[7;1m [0m| |[7;1m [0m| |[7;1m [0m| || 6
[32;1m[Board] [0m  -------------------
[32;1m[Board] [0m5 ||[30;1mp[0m|[7;1m [0m| |[7;1m [0m| |[7;1m [0m| |[30;1mk[0m|| 5
[32;1m[Board] [0m  -------------------
[32;1m[Board] [0m4 ||[7;1m [0m| |[7;1m [0m| |[0;1mp[0m|[30;1mp[0m|[30;1mQ[0m| || 4
[32;1m[Board] [0m  -------------------
[32;1m[Board] [0m3 || |[7;1m [0m|[0;1mk[0m|[0;1mp[0m| |[7;1m [0m| |[7;1m [0m|| 3
[32;1m[Board] [0m  -------------------
[32;1m[Board] [0m2 ||[0;1mp[0m|[0;1mp[0m|[0;1mp[0m|[0;1mb[0m|[7;1m [0m|[0;1mp[0m|[0;1mp[0m|[0;1mp[0m|| 2
[32;1m[Board] [0m  -------------------
[32;1m[Board] [0m1 || |[0;1mr[0m| |[7;1m [0m|[0;1mK[0m|[0;1mb[0m| |[0;1mr[0m|| 1
[32;1m[Board] [0m  -------------------
[32;1m[Board] [0m    a b c d e f g h
[32;1m[Board] [0m
[32;1m[Referee] [0mThis is the turn of the White player...
Input file: championship/lizzie-iii-remmato-iii/history.csv
Output file: championship/lizzie-iii-remmato-iii/move.csv
Turn of: white
Succesful move
e2e4
8 | R N B Q K B N R 
7 | P P P P P P P P 
6 | _ _ _ _ _ _ _ _ 
5 | _ _ _ _ _ _ _ _ 
4 | _ _ _ _ P _ _ _ 
3 | _ _ _ _ _ _ _ _ 
2 | P P P P _ P P P 
1 | R N B Q K B N R 
-------------------
  | A B C D E F G H 

Turn of: black
Succesful move
e7e5
8 | R N B Q K B N R 
7 | P P P P _ P P P 
6 | _ _ _ _ _ _ _ _ 
5 | _ _ _ _ P _ _ _ 
4 | _ _ _ _ P _ _ _ 
3 | _ _ _ _ _ _ _ _ 
2 | P P P P _ P P P 
1 | R N B Q K B N R 
-------------------
  | A B C D E F G H 

Turn of: white
Succesful move
d1h5
8 | R N B Q K B N R 
7 | P P P P _ P P P 
6 | _ _ _ _ _ _ _ _ 
5 | _ _ _ _ P _ _ Q 
4 | _ _ _ _ P _ _ _ 
3 | _ _ _ _ _ _ _ _ 
2 | P P P P _ P P P 
1 | R N B _ K B N R 
-------------------
  | A B C D E F G H 

Turn of: black
Succesful move
g8f6
8 | R N B Q K B _ R 
7 | P P P P _ P P P 
6 | _ _ _ _ _ N _ _ 
5 | _ _ _ _ P _ _ Q 
4 | _ _ _ _ P _ _ _ 
3 | _ _ _ _ _ _ _ _ 
2 | P P P P _ P P P 
1 | R N B _ K B N R 
-------------------
  | A B C D E F G H 

Turn of: white
Succesful move
g1e2
8 | R N B Q K B _ R 
7 | P P P P _ P P P 
6 | _ _ _ _ _ N _ _ 
5 | _ _ _ _ P _ _ Q 
4 | _ _ _ _ P _ _ _ 
3 | _ _ _ _ _ _ _ _ 
2 | P P P P N P P P 
1 | R N B _ K B _ R 
-------------------
  | A B C D E F G H 

Turn of: black
Succesful move
f6h5
8 | R N B Q K B _ R 
7 | P P P P _ P P P 
6 | _ _ _ _ _ _ _ _ 
5 | _ _ _ _ P _ _ N 
4 | _ _ _ _ P _ _ _ 
3 | _ _ _ _ _ _ _ _ 
2 | P P P P N P P P 
1 | R N B _ K B _ R 
-------------------
  | A B C D E F G H 

Turn of: white
Succesful move
b1c3
8 | R N B Q K B _ R 
7 | P P P P _ P P P 
6 | _ _ _ _ _ _ _ _ 
5 | _ _ _ _ P _ _ N 
4 | _ _ _ _ P _ _ _ 
3 | _ _ N _ _ _ _ _ 
2 | P P P P N P P P 
1 | R _ B _ K B _ R 
-------------------
  | A B C D E F G H 

Turn of: black
Succesful move
a7a5
8 | R N B Q K B _ R 
7 | _ P P P _ P P P 
6 | _ _ _ _ _ _ _ _ 
5 | P _ _ _ P _ _ N 
4 | _ _ _ _ P _ _ _ 
3 | _ _ N _ _ _ _ _ 
2 | P P P P N P P P 
1 | R _ B _ K B _ R 
-------------------
  | A B C D E F G H 

Turn of: white
Succesful move
d2d3
8 | R N B Q K B _ R 
7 | _ P P P _ P P P 
6 | _ _ _ _ _ _ _ _ 
5 | P _ _ _ P _ _ N 
4 | _ _ _ _ P _ _ _ 
3 | _ _ N P _ _ _ _ 
2 | P P P _ N P P P 
1 | R _ B _ K B _ R 
-------------------
  | A B C D E F G H 

Turn of: black
Succesful move
d8h4
8 | R N B _ K B _ R 
7 | _ P P P _ P P P 
6 | _ _ _ _ _ _ _ _ 
5 | P _ _ _ P _ _ N 
4 | _ _ _ _ P _ _ Q 
3 | _ _ N P _ _ _ _ 
2 | P P P _ N P P P 
1 | R _ B _ K B _ R 
-------------------
  | A B C D E F G H 

Turn of: white
Succesful move
a1b1
8 | R N B _ K B _ R 
7 | _ P P P _ P P P 
6 | _ _ _ _ _ _ _ _ 
5 | P _ _ _ P _ _ N 
4 | _ _ _ _ P _ _ Q 
3 | _ _ N P _ _ _ _ 
2 | P P P _ N P P P 
1 | _ R B _ K B _ R 
-------------------
  | A B C D E F G H 

Turn of: black
Succesful move
h4g4
8 | R N B _ K B _ R 
7 | _ P P P _ P P P 
6 | _ _ _ _ _ _ _ _ 
5 | P _ _ _ P _ _ N 
4 | _ _ _ _ P _ Q _ 
3 | _ _ N P _ _ _ _ 
2 | P P P _ N P P P 
1 | _ R B _ K B _ R 
-------------------
  | A B C D E F G H 

Turn of: white
Succesful move
e2f4
8 | R N B _ K B _ R 
7 | _ P P P _ P P P 
6 | _ _ _ _ _ _ _ _ 
5 | P _ _ _ P _ _ N 
4 | _ _ _ _ P N Q _ 
3 | _ _ N P _ _ _ _ 
2 | P P P _ _ P P P 
1 | _ R B _ K B _ R 
-------------------
  | A B C D E F G H 

Turn of: black
Succesful move
e5f4
8 | R N B _ K B _ R 
7 | _ P P P _ P P P 
6 | _ _ _ _ _ _ _ _ 
5 | P _ _ _ _ _ _ N 
4 | _ _ _ _ P P Q _ 
3 | _ _ N P _ _ _ _ 
2 | P P P _ _ P P P 
1 | _ R B _ K B _ R 
-------------------
  | A B C D E F G H 

Turn of: white
Succesful move
c1d2
8 | R N B _ K B _ R 
7 | _ P P P _ P P P 
6 | _ _ _ _ _ _ _ _ 
5 | P _ _ _ _ _ _ N 
4 | _ _ _ _ P P Q _ 
3 | _ _ N P _ _ _ _ 
2 | P P P B _ P P P 
1 | _ R _ _ K B _ R 
-------------------
  | A B C D E F G H 

Turn of: black
Succesful move
b7b6
8 | R N B _ K B _ R 
7 | _ _ P P _ P P P 
6 | _ P _ _ _ _ _ _ 
5 | P _ _ _ _ _ _ N 
4 | _ _ _ _ P P Q _ 
3 | _ _ N P _ _ _ _ 
2 | P P P B _ P P P 
1 | _ R _ _ K B _ R 
-------------------
  | A B C D E F G H 

We are playing as White
Move history:
e2e4
e7e5
d1h5
g8f6
g1e2
f6h5
b1c3
a7a5
d2d3
d8h4
a1b1
h4g4
e2f4
e5f4
c1d2
b7b6
8 | R N B _ K B _ R 
7 | _ _ P P _ P P P 
6 | _ P _ _ _ _ _ _ 
5 | P _ _ _ _ _ _ N 
4 | _ _ _ _ P P Q _ 
3 | _ _ N P _ _ _ _ 
2 | P P P B _ P P P 
1 | _ R _ _ K B _ R 
-------------------
  | A B C D E F G H 

It is white's turn to play.
AI's move: e4e5
Move written: e4e5
[32;1m[Game] [0mPlayer's error code: 0
[32;1m[Game] [0mChecking move validity...
[32;1m[Board] [0mInitializing board...
[32;1m[Board] [0mLoading history file `championship/lizzie-iii-remmato-iii/history.csv`...
[32;1m[Board] [0mLoaded 16 move(s).
[32;1m[Board] [0mLoading move file `championship/lizzie-iii-remmato-iii/move.csv`...
[32;1m[Board] [0mWhite player is playing e4 to e5.
[32;1m[Board] [0m
[32;1m[Board] [0m    a b c d e f g h 
[32;1m[Board] [0m  -------------------
[32;1m[Board] [0m8 ||[30;1mr[0m|[30;1mk[0m|[30;1mb[0m| |[30;1mK[0m|[30;1mb[0m|[7;1m [0m|[30;1mr[0m|| 8
[32;1m[Board] [0m  -------------------
[32;1m[Board] [0m7 || |[7;1m [0m|[30;1mp[0m|[30;1mp[0m| |[30;1mp[0m|[30;1mp[0m|[30;1mp[0m|| 7
[32;1m[Board] [0m  -------------------
[32;1m[Board] [0m6 ||[7;1m [0m|[30;1mp[0m|[7;1m [0m| |[7;1m [0m| |[7;1m [0m| || 6
[32;1m[Board] [0m  -------------------
[32;1m[Board] [0m5 ||[30;1mp[0m|[7;1m [0m| |[7;1m [0m|[0;1mp[0m|[7;1m [0m| |[30;1mk[0m|| 5
[32;1m[Board] [0m  -------------------
[32;1m[Board] [0m4 ||[7;1m [0m| |[7;1m [0m| |[7;1m [0m|[30;1mp[0m|[30;1mQ[0m| || 4
[32;1m[Board] [0m  -------------------
[32;1m[Board] [0m3 || |[7;1m [0m|[0;1mk[0m|[0;1mp[0m| |[7;1m [0m| |[7;1m [0m|| 3
[32;1m[Board] [0m  -------------------
[32;1m[Board] [0m2 ||[0;1mp[0m|[0;1mp[0m|[0;1mp[0m|[0;1mb[0m|[7;1m [0m|[0;1mp[0m|[0;1mp[0m|[0;1mp[0m|| 2
[32;1m[Board] [0m  -------------------
[32;1m[Board] [0m1 || |[0;1mr[0m| |[7;1m [0m|[0;1mK[0m|[0;1mb[0m| |[0;1mr[0m|| 1
[32;1m[Board] [0m  -------------------
[32;1m[Board] [0m    a b c d e f g h
[32;1m[Board] [0m
[32;1m[Referee] [0mThis is the turn of the Black player...
Error: /data/julien/Pro/git/teaching/x/2024/remmato-iii/build/bin/../resources/openings does not exist or is not a directory
[32;1m[Game] [0mPlayer's error code: 0
[32;1m[Game] [0mChecking move validity...
[32;1m[Board] [0mInitializing board...
[32;1m[Board] [0mLoading history file `championship/lizzie-iii-remmato-iii/history.csv`...
[32;1m[Board] [0mLoaded 17 move(s).
[32;1m[Board] [0mLoading move file `championship/lizzie-iii-remmato-iii/move.csv`...
[32;1m[Board] [0mBlack player is playing g4 to g5.
[32;1m[Board] [0m
[32;1m[Board] [0m    a b c d e f g h 
[32;1m[Board] [0m  -------------------
[32;1m[Board] [0m8 ||[30;1mr[0m|[30;1mk[0m|[30;1mb[0m| |[30;1mK[0m|[30;1mb[0m|[7;1m [0m|[30;1mr[0m|| 8
[32;1m[Board] [0m  -------------------
[32;1m[Board] [0m7 || |[7;1m [0m|[30;1mp[0m|[30;1mp[0m| |[30;1mp[0m|[30;1mp[0m|[30;1mp[0m|| 7
[32;1m[Board] [0m  -------------------
[32;1m[Board] [0m6 ||[7;1m [0m|[30;1mp[0m|[7;1m [0m| |[7;1m [0m| |[7;1m [0m| || 6
[32;1m[Board] [0m  -------------------
[32;1m[Board] [0m5 ||[30;1mp[0m|[7;1m [0m| |[7;1m [0m|[0;1mp[0m|[7;1m [0m|[30;1mQ[0m|[30;1mk[0m|| 5
[32;1m[Board] [0m  -------------------
[32;1m[Board] [0m4 ||[7;1m [0m| |[7;1m [0m| |[7;1m [0m|[30;1mp[0m|[7;1m [0m| || 4
[32;1m[Board] [0m  -------------------
[32;1m[Board] [0m3 || |[7;1m [0m|[0;1mk[0m|[0;1mp[0m| |[7;1m [0m| |[7;1m [0m|| 3
[32;1m[Board] [0m  -------------------
[32;1m[Board] [0m2 ||[0;1mp[0m|[0;1mp[0m|[0;1mp[0m|[0;1mb[0m|[7;1m [0m|[0;1mp[0m|[0;1mp[0m|[0;1mp[0m|| 2
[32;1m[Board] [0m  -------------------
[32;1m[Board] [0m1 || |[0;1mr[0m| |[7;1m [0m|[0;1mK[0m|[0;1mb[0m| |[0;1mr[0m|| 1
[32;1m[Board] [0m  -------------------
[32;1m[Board] [0m    a b c d e f g h
[32;1m[Board] [0m
[32;1m[Referee] [0mThis is the turn of the White player...
Input file: championship/lizzie-iii-remmato-iii/history.csv
Output file: championship/lizzie-iii-remmato-iii/move.csv
Turn of: white
Succesful move
e2e4
8 | R N B Q K B N R 
7 | P P P P P P P P 
6 | _ _ _ _ _ _ _ _ 
5 | _ _ _ _ _ _ _ _ 
4 | _ _ _ _ P _ _ _ 
3 | _ _ _ _ _ _ _ _ 
2 | P P P P _ P P P 
1 | R N B Q K B N R 
-------------------
  | A B C D E F G H 

Turn of: black
Succesful move
e7e5
8 | R N B Q K B N R 
7 | P P P P _ P P P 
6 | _ _ _ _ _ _ _ _ 
5 | _ _ _ _ P _ _ _ 
4 | _ _ _ _ P _ _ _ 
3 | _ _ _ _ _ _ _ _ 
2 | P P P P _ P P P 
1 | R N B Q K B N R 
-------------------
  | A B C D E F G H 

Turn of: white
Succesful move
d1h5
8 | R N B Q K B N R 
7 | P P P P _ P P P 
6 | _ _ _ _ _ _ _ _ 
5 | _ _ _ _ P _ _ Q 
4 | _ _ _ _ P _ _ _ 
3 | _ _ _ _ _ _ _ _ 
2 | P P P P _ P P P 
1 | R N B _ K B N R 
-------------------
  | A B C D E F G H 

Turn of: black
Succesful move
g8f6
8 | R N B Q K B _ R 
7 | P P P P _ P P P 
6 | _ _ _ _ _ N _ _ 
5 | _ _ _ _ P _ _ Q 
4 | _ _ _ _ P _ _ _ 
3 | _ _ _ _ _ _ _ _ 
2 | P P P P _ P P P 
1 | R N B _ K B N R 
-------------------
  | A B C D E F G H 

Turn of: white
Succesful move
g1e2
8 | R N B Q K B _ R 
7 | P P P P _ P P P 
6 | _ _ _ _ _ N _ _ 
5 | _ _ _ _ P _ _ Q 
4 | _ _ _ _ P _ _ _ 
3 | _ _ _ _ _ _ _ _ 
2 | P P P P N P P P 
1 | R N B _ K B _ R 
-------------------
  | A B C D E F G H 

Turn of: black
Succesful move
f6h5
8 | R N B Q K B _ R 
7 | P P P P _ P P P 
6 | _ _ _ _ _ _ _ _ 
5 | _ _ _ _ P _ _ N 
4 | _ _ _ _ P _ _ _ 
3 | _ _ _ _ _ _ _ _ 
2 | P P P P N P P P 
1 | R N B _ K B _ R 
-------------------
  | A B C D E F G H 

Turn of: white
Succesful move
b1c3
8 | R N B Q K B _ R 
7 | P P P P _ P P P 
6 | _ _ _ _ _ _ _ _ 
5 | _ _ _ _ P _ _ N 
4 | _ _ _ _ P _ _ _ 
3 | _ _ N _ _ _ _ _ 
2 | P P P P N P P P 
1 | R _ B _ K B _ R 
-------------------
  | A B C D E F G H 

Turn of: black
Succesful move
a7a5
8 | R N B Q K B _ R 
7 | _ P P P _ P P P 
6 | _ _ _ _ _ _ _ _ 
5 | P _ _ _ P _ _ N 
4 | _ _ _ _ P _ _ _ 
3 | _ _ N _ _ _ _ _ 
2 | P P P P N P P P 
1 | R _ B _ K B _ R 
-------------------
  | A B C D E F G H 

Turn of: white
Succesful move
d2d3
8 | R N B Q K B _ R 
7 | _ P P P _ P P P 
6 | _ _ _ _ _ _ _ _ 
5 | P _ _ _ P _ _ N 
4 | _ _ _ _ P _ _ _ 
3 | _ _ N P _ _ _ _ 
2 | P P P _ N P P P 
1 | R _ B _ K B _ R 
-------------------
  | A B C D E F G H 

Turn of: black
Succesful move
d8h4
8 | R N B _ K B _ R 
7 | _ P P P _ P P P 
6 | _ _ _ _ _ _ _ _ 
5 | P _ _ _ P _ _ N 
4 | _ _ _ _ P _ _ Q 
3 | _ _ N P _ _ _ _ 
2 | P P P _ N P P P 
1 | R _ B _ K B _ R 
-------------------
  | A B C D E F G H 

Turn of: white
Succesful move
a1b1
8 | R N B _ K B _ R 
7 | _ P P P _ P P P 
6 | _ _ _ _ _ _ _ _ 
5 | P _ _ _ P _ _ N 
4 | _ _ _ _ P _ _ Q 
3 | _ _ N P _ _ _ _ 
2 | P P P _ N P P P 
1 | _ R B _ K B _ R 
-------------------
  | A B C D E F G H 

Turn of: black
Succesful move
h4g4
8 | R N B _ K B _ R 
7 | _ P P P _ P P P 
6 | _ _ _ _ _ _ _ _ 
5 | P _ _ _ P _ _ N 
4 | _ _ _ _ P _ Q _ 
3 | _ _ N P _ _ _ _ 
2 | P P P _ N P P P 
1 | _ R B _ K B _ R 
-------------------
  | A B C D E F G H 

Turn of: white
Succesful move
e2f4
8 | R N B _ K B _ R 
7 | _ P P P _ P P P 
6 | _ _ _ _ _ _ _ _ 
5 | P _ _ _ P _ _ N 
4 | _ _ _ _ P N Q _ 
3 | _ _ N P _ _ _ _ 
2 | P P P _ _ P P P 
1 | _ R B _ K B _ R 
-------------------
  | A B C D E F G H 

Turn of: black
Succesful move
e5f4
8 | R N B _ K B _ R 
7 | _ P P P _ P P P 
6 | _ _ _ _ _ _ _ _ 
5 | P _ _ _ _ _ _ N 
4 | _ _ _ _ P P Q _ 
3 | _ _ N P _ _ _ _ 
2 | P P P _ _ P P P 
1 | _ R B _ K B _ R 
-------------------
  | A B C D E F G H 

Turn of: white
Succesful move
c1d2
8 | R N B _ K B _ R 
7 | _ P P P _ P P P 
6 | _ _ _ _ _ _ _ _ 
5 | P _ _ _ _ _ _ N 
4 | _ _ _ _ P P Q _ 
3 | _ _ N P _ _ _ _ 
2 | P P P B _ P P P 
1 | _ R _ _ K B _ R 
-------------------
  | A B C D E F G H 

Turn of: black
Succesful move
b7b6
8 | R N B _ K B _ R 
7 | _ _ P P _ P P P 
6 | _ P _ _ _ _ _ _ 
5 | P _ _ _ _ _ _ N 
4 | _ _ _ _ P P Q _ 
3 | _ _ N P _ _ _ _ 
2 | P P P B _ P P P 
1 | _ R _ _ K B _ R 
-------------------
  | A B C D E F G H 

Turn of: white
Succesful move
e4e5
8 | R N B _ K B _ R 
7 | _ _ P P _ P P P 
6 | _ P _ _ _ _ _ _ 
5 | P _ _ _ P _ _ N 
4 | _ _ _ _ _ P Q _ 
3 | _ _ N P _ _ _ _ 
2 | P P P B _ P P P 
1 | _ R _ _ K B _ R 
-------------------
  | A B C D E F G H 

Turn of: black
Succesful move
g4g5
8 | R N B _ K B _ R 
7 | _ _ P P _ P P P 
6 | _ P _ _ _ _ _ _ 
5 | P _ _ _ P _ Q N 
4 | _ _ _ _ _ P _ _ 
3 | _ _ N P _ _ _ _ 
2 | P P P B _ P P P 
1 | _ R _ _ K B _ R 
-------------------
  | A B C D E F G H 

We are playing as White
Move history:
e2e4
e7e5
d1h5
g8f6
g1e2
f6h5
b1c3
a7a5
d2d3
d8h4
a1b1
h4g4
e2f4
e5f4
c1d2
b7b6
e4e5
g4g5
8 | R N B _ K B _ R 
7 | _ _ P P _ P P P 
6 | _ P _ _ _ _ _ _ 
5 | P _ _ _ P _ Q N 
4 | _ _ _ _ _ P _ _ 
3 | _ _ N P _ _ _ _ 
2 | P P P B _ P P P 
1 | _ R _ _ K B _ R 
-------------------
  | A B C D E F G H 

It is white's turn to play.
AI's move: b1c1
Move written: b1c1
[32;1m[Game] [0mPlayer's error code: 0
[32;1m[Game] [0mChecking move validity...
[32;1m[Board] [0mInitializing board...
[32;1m[Board] [0mLoading history file `championship/lizzie-iii-remmato-iii/history.csv`...
[32;1m[Board] [0mLoaded 18 move(s).
[32;1m[Board] [0mLoading move file `championship/lizzie-iii-remmato-iii/move.csv`...
[32;1m[Board] [0mWhite player is playing b1 to c1.
[32;1m[Board] [0m
[32;1m[Board] [0m    a b c d e f g h 
[32;1m[Board] [0m  -------------------
[32;1m[Board] [0m8 ||[30;1mr[0m|[30;1mk[0m|[30;1mb[0m| |[30;1mK[0m|[30;1mb[0m|[7;1m [0m|[30;1mr[0m|| 8
[32;1m[Board] [0m  -------------------
[32;1m[Board] [0m7 || |[7;1m [0m|[30;1mp[0m|[30;1mp[0m| |[30;1mp[0m|[30;1mp[0m|[30;1mp[0m|| 7
[32;1m[Board] [0m  -------------------
[32;1m[Board] [0m6 ||[7;1m [0m|[30;1mp[0m|[7;1m [0m| |[7;1m [0m| |[7;1m [0m| || 6
[32;1m[Board] [0m  -------------------
[32;1m[Board] [0m5 ||[30;1mp[0m|[7;1m [0m| |[7;1m [0m|[0;1mp[0m|[7;1m [0m|[30;1mQ[0m|[30;1mk[0m|| 5
[32;1m[Board] [0m  -------------------
[32;1m[Board] [0m4 ||[7;1m [0m| |[7;1m [0m| |[7;1m [0m|[30;1mp[0m|[7;1m [0m| || 4
[32;1m[Board] [0m  -------------------
[32;1m[Board] [0m3 || |[7;1m [0m|[0;1mk[0m|[0;1mp[0m| |[7;1m [0m| |[7;1m [0m|| 3
[32;1m[Board] [0m  -------------------
[32;1m[Board] [0m2 ||[0;1mp[0m|[0;1mp[0m|[0;1mp[0m|[0;1mb[0m|[7;1m [0m|[0;1mp[0m|[0;1mp[0m|[0;1mp[0m|| 2
[32;1m[Board] [0m  -------------------
[32;1m[Board] [0m1 || |[7;1m [0m|[0;1mr[0m|[7;1m [0m|[0;1mK[0m|[0;1mb[0m| |[0;1mr[0m|| 1
[32;1m[Board] [0m  -------------------
[32;1m[Board] [0m    a b c d e f g h
[32;1m[Board] [0m
[32;1m[Referee] [0mThis is the turn of the Black player...
Error: /data/julien/Pro/git/teaching/x/2024/remmato-iii/build/bin/../resources/openings does not exist or is not a directory
[32;1m[Game] [0mPlayer's error code: 0
[32;1m[Game] [0mChecking move validity...
[32;1m[Board] [0mInitializing board...
[32;1m[Board] [0mLoading history file `championship/lizzie-iii-remmato-iii/history.csv`...
[32;1m[Board] [0mLoaded 19 move(s).
[32;1m[Board] [0mLoading move file `championship/lizzie-iii-remmato-iii/move.csv`...
[32;1m[Board] [0mBlack player is playing g5 to e5.
[32;1m[Board] [0m[5;1mBlack Queen is taking White Pawn.[0m
[32;1m[Board] [0m
[32;1m[Board] [0m    a b c d e f g h 
[32;1m[Board] [0m  -------------------
[32;1m[Board] [0m8 ||[30;1mr[0m|[30;1mk[0m|[30;1mb[0m| |[30;1mK[0m|[30;1mb[0m|[7;1m [0m|[30;1mr[0m|| 8
[32;1m[Board] [0m  -------------------
[32;1m[Board] [0m7 || |[7;1m [0m|[30;1mp[0m|[30;1mp[0m| |[30;1mp[0m|[30;1mp[0m|[30;1mp[0m|| 7
[32;1m[Board] [0m  -------------------
[32;1m[Board] [0m6 ||[7;1m [0m|[30;1mp[0m|[7;1m [0m| |[7;1m [0m| |[7;1m [0m| || 6
[32;1m[Board] [0m  -------------------
[32;1m[Board] [0m5 ||[30;1mp[0m|[7;1m [0m| |[7;1m [0m|[30;1mQ[0m|[7;1m [0m| |[30;1mk[0m|| 5
[32;1m[Board] [0m  -------------------
[32;1m[Board] [0m4 ||[7;1m [0m| |[7;1m [0m| |[7;1m [0m|[30;1mp[0m|[7;1m [0m| || 4
[32;1m[Board] [0m  -------------------
[32;1m[Board] [0m3 || |[7;1m [0m|[0;1mk[0m|[0;1mp[0m| |[7;1m [0m| |[7;1m [0m|| 3
[32;1m[Board] [0m  -------------------
[32;1m[Board] [0m2 ||[0;1mp[0m|[0;1mp[0m|[0;1mp[0m|[0;1mb[0m|[7;1m [0m|[0;1mp[0m|[0;1mp[0m|[0;1mp[0m|| 2
[32;1m[Board] [0m  -------------------
[32;1m[Board] [0m1 || |[7;1m [0m|[0;1mr[0m|[7;1m [0m|[0;1mK[0m|[0;1mb[0m| |[0;1mr[0m|| 1
[32;1m[Board] [0m  -------------------
[32;1m[Board] [0m    a b c d e f g h
[32;1m[Board] [0m
[32;1m[Referee] [0mThis is the turn of the White player...
[32;1m[Board] [0m[33;1m[WARNING][0m [5;1mWhite King in check![0m
[32;1m[Board] [0m[33;1m[WARNING][0m    Threatened by Black Queen (e5)
Input file: championship/lizzie-iii-remmato-iii/history.csv
Output file: championship/lizzie-iii-remmato-iii/move.csv
Turn of: white
Succesful move
e2e4
8 | R N B Q K B N R 
7 | P P P P P P P P 
6 | _ _ _ _ _ _ _ _ 
5 | _ _ _ _ _ _ _ _ 
4 | _ _ _ _ P _ _ _ 
3 | _ _ _ _ _ _ _ _ 
2 | P P P P _ P P P 
1 | R N B Q K B N R 
-------------------
  | A B C D E F G H 

Turn of: black
Succesful move
e7e5
8 | R N B Q K B N R 
7 | P P P P _ P P P 
6 | _ _ _ _ _ _ _ _ 
5 | _ _ _ _ P _ _ _ 
4 | _ _ _ _ P _ _ _ 
3 | _ _ _ _ _ _ _ _ 
2 | P P P P _ P P P 
1 | R N B Q K B N R 
-------------------
  | A B C D E F G H 

Turn of: white
Succesful move
d1h5
8 | R N B Q K B N R 
7 | P P P P _ P P P 
6 | _ _ _ _ _ _ _ _ 
5 | _ _ _ _ P _ _ Q 
4 | _ _ _ _ P _ _ _ 
3 | _ _ _ _ _ _ _ _ 
2 | P P P P _ P P P 
1 | R N B _ K B N R 
-------------------
  | A B C D E F G H 

Turn of: black
Succesful move
g8f6
8 | R N B Q K B _ R 
7 | P P P P _ P P P 
6 | _ _ _ _ _ N _ _ 
5 | _ _ _ _ P _ _ Q 
4 | _ _ _ _ P _ _ _ 
3 | _ _ _ _ _ _ _ _ 
2 | P P P P _ P P P 
1 | R N B _ K B N R 
-------------------
  | A B C D E F G H 

Turn of: white
Succesful move
g1e2
8 | R N B Q K B _ R 
7 | P P P P _ P P P 
6 | _ _ _ _ _ N _ _ 
5 | _ _ _ _ P _ _ Q 
4 | _ _ _ _ P _ _ _ 
3 | _ _ _ _ _ _ _ _ 
2 | P P P P N P P P 
1 | R N B _ K B _ R 
-------------------
  | A B C D E F G H 

Turn of: black
Succesful move
f6h5
8 | R N B Q K B _ R 
7 | P P P P _ P P P 
6 | _ _ _ _ _ _ _ _ 
5 | _ _ _ _ P _ _ N 
4 | _ _ _ _ P _ _ _ 
3 | _ _ _ _ _ _ _ _ 
2 | P P P P N P P P 
1 | R N B _ K B _ R 
-------------------
  | A B C D E F G H 

Turn of: white
Succesful move
b1c3
8 | R N B Q K B _ R 
7 | P P P P _ P P P 
6 | _ _ _ _ _ _ _ _ 
5 | _ _ _ _ P _ _ N 
4 | _ _ _ _ P _ _ _ 
3 | _ _ N _ _ _ _ _ 
2 | P P P P N P P P 
1 | R _ B _ K B _ R 
-------------------
  | A B C D E F G H 

Turn of: black
Succesful move
a7a5
8 | R N B Q K B _ R 
7 | _ P P P _ P P P 
6 | _ _ _ _ _ _ _ _ 
5 | P _ _ _ P _ _ N 
4 | _ _ _ _ P _ _ _ 
3 | _ _ N _ _ _ _ _ 
2 | P P P P N P P P 
1 | R _ B _ K B _ R 
-------------------
  | A B C D E F G H 

Turn of: white
Succesful move
d2d3
8 | R N B Q K B _ R 
7 | _ P P P _ P P P 
6 | _ _ _ _ _ _ _ _ 
5 | P _ _ _ P _ _ N 
4 | _ _ _ _ P _ _ _ 
3 | _ _ N P _ _ _ _ 
2 | P P P _ N P P P 
1 | R _ B _ K B _ R 
-------------------
  | A B C D E F G H 

Turn of: black
Succesful move
d8h4
8 | R N B _ K B _ R 
7 | _ P P P _ P P P 
6 | _ _ _ _ _ _ _ _ 
5 | P _ _ _ P _ _ N 
4 | _ _ _ _ P _ _ Q 
3 | _ _ N P _ _ _ _ 
2 | P P P _ N P P P 
1 | R _ B _ K B _ R 
-------------------
  | A B C D E F G H 

Turn of: white
Succesful move
a1b1
8 | R N B _ K B _ R 
7 | _ P P P _ P P P 
6 | _ _ _ _ _ _ _ _ 
5 | P _ _ _ P _ _ N 
4 | _ _ _ _ P _ _ Q 
3 | _ _ N P _ _ _ _ 
2 | P P P _ N P P P 
1 | _ R B _ K B _ R 
-------------------
  | A B C D E F G H 

Turn of: black
Succesful move
h4g4
8 | R N B _ K B _ R 
7 | _ P P P _ P P P 
6 | _ _ _ _ _ _ _ _ 
5 | P _ _ _ P _ _ N 
4 | _ _ _ _ P _ Q _ 
3 | _ _ N P _ _ _ _ 
2 | P P P _ N P P P 
1 | _ R B _ K B _ R 
-------------------
  | A B C D E F G H 

Turn of: white
Succesful move
e2f4
8 | R N B _ K B _ R 
7 | _ P P P _ P P P 
6 | _ _ _ _ _ _ _ _ 
5 | P _ _ _ P _ _ N 
4 | _ _ _ _ P N Q _ 
3 | _ _ N P _ _ _ _ 
2 | P P P _ _ P P P 
1 | _ R B _ K B _ R 
-------------------
  | A B C D E F G H 

Turn of: black
Succesful move
e5f4
8 | R N B _ K B _ R 
7 | _ P P P _ P P P 
6 | _ _ _ _ _ _ _ _ 
5 | P _ _ _ _ _ _ N 
4 | _ _ _ _ P P Q _ 
3 | _ _ N P _ _ _ _ 
2 | P P P _ _ P P P 
1 | _ R B _ K B _ R 
-------------------
  | A B C D E F G H 

Turn of: white
Succesful move
c1d2
8 | R N B _ K B _ R 
7 | _ P P P _ P P P 
6 | _ _ _ _ _ _ _ _ 
5 | P _ _ _ _ _ _ N 
4 | _ _ _ _ P P Q _ 
3 | _ _ N P _ _ _ _ 
2 | P P P B _ P P P 
1 | _ R _ _ K B _ R 
-------------------
  | A B C D E F G H 

Turn of: black
Succesful move
b7b6
8 | R N B _ K B _ R 
7 | _ _ P P _ P P P 
6 | _ P _ _ _ _ _ _ 
5 | P _ _ _ _ _ _ N 
4 | _ _ _ _ P P Q _ 
3 | _ _ N P _ _ _ _ 
2 | P P P B _ P P P 
1 | _ R _ _ K B _ R 
-------------------
  | A B C D E F G H 

Turn of: white
Succesful move
e4e5
8 | R N B _ K B _ R 
7 | _ _ P P _ P P P 
6 | _ P _ _ _ _ _ _ 
5 | P _ _ _ P _ _ N 
4 | _ _ _ _ _ P Q _ 
3 | _ _ N P _ _ _ _ 
2 | P P P B _ P P P 
1 | _ R _ _ K B _ R 
-------------------
  | A B C D E F G H 

Turn of: black
Succesful move
g4g5
8 | R N B _ K B _ R 
7 | _ _ P P _ P P P 
6 | _ P _ _ _ _ _ _ 
5 | P _ _ _ P _ Q N 
4 | _ _ _ _ _ P _ _ 
3 | _ _ N P _ _ _ _ 
2 | P P P B _ P P P 
1 | _ R _ _ K B _ R 
-------------------
  | A B C D E F G H 

Turn of: white
Succesful move
b1c1
8 | R N B _ K B _ R 
7 | _ _ P P _ P P P 
6 | _ P _ _ _ _ _ _ 
5 | P _ _ _ P _ Q N 
4 | _ _ _ _ _ P _ _ 
3 | _ _ N P _ _ _ _ 
2 | P P P B _ P P P 
1 | _ _ R _ K B _ R 
-------------------
  | A B C D E F G H 

Turn of: black
Succesful move
g5e5
8 | R N B _ K B _ R 
7 | _ _ P P _ P P P 
6 | _ P _ _ _ _ _ _ 
5 | P _ _ _ Q _ _ N 
4 | _ _ _ _ _ P _ _ 
3 | _ _ N P _ _ _ _ 
2 | P P P B _ P P P 
1 | _ _ R _ K B _ R 
-------------------
  | A B C D E F G H 

We are playing as White
Move history:
e2e4
e7e5
d1h5
g8f6
g1e2
f6h5
b1c3
a7a5
d2d3
d8h4
a1b1
h4g4
e2f4
e5f4
c1d2
b7b6
e4e5
g4g5
b1c1
g5e5
8 | R N B _ K B _ R 
7 | _ _ P P _ P P P 
6 | _ P _ _ _ _ _ _ 
5 | P _ _ _ Q _ _ N 
4 | _ _ _ _ _ P _ _ 
3 | _ _ N P _ _ _ _ 
2 | P P P B _ P P P 
1 | _ _ R _ K B _ R 
-------------------
  | A B C D E F G H 

It is white's turn to play.
AI's move: c3e4
Move written: c3e4
[32;1m[Game] [0mPlayer's error code: 0
[32;1m[Game] [0mChecking move validity...
[32;1m[Board] [0mInitializing board...
[32;1m[Board] [0mLoading history file `championship/lizzie-iii-remmato-iii/history.csv`...
[32;1m[Board] [0mLoaded 20 move(s).
[32;1m[Board] [0mLoading move file `championship/lizzie-iii-remmato-iii/move.csv`...
[32;1m[Board] [0mWhite player is playing c3 to e4.
[32;1m[Board] [0m
[32;1m[Board] [0m    a b c d e f g h 
[32;1m[Board] [0m  -------------------
[32;1m[Board] [0m8 ||[30;1mr[0m|[30;1mk[0m|[30;1mb[0m| |[30;1mK[0m|[30;1mb[0m|[7;1m [0m|[30;1mr[0m|| 8
[32;1m[Board] [0m  -------------------
[32;1m[Board] [0m7 || |[7;1m [0m|[30;1mp[0m|[30;1mp[0m| |[30;1mp[0m|[30;1mp[0m|[30;1mp[0m|| 7
[32;1m[Board] [0m  -------------------
[32;1m[Board] [0m6 ||[7;1m [0m|[30;1mp[0m|[7;1m [0m| |[7;1m [0m| |[7;1m [0m| || 6
[32;1m[Board] [0m  -------------------
[32;1m[Board] [0m5 ||[30;1mp[0m|[7;1m [0m| |[7;1m [0m|[30;1mQ[0m|[7;1m [0m| |[30;1mk[0m|| 5
[32;1m[Board] [0m  -------------------
[32;1m[Board] [0m4 ||[7;1m [0m| |[7;1m [0m| |[0;1mk[0m|[30;1mp[0m|[7;1m [0m| || 4
[32;1m[Board] [0m  -------------------
[32;1m[Board] [0m3 || |[7;1m [0m| |[0;1mp[0m| |[7;1m [0m| |[7;1m [0m|| 3
[32;1m[Board] [0m  -------------------
[32;1m[Board] [0m2 ||[0;1mp[0m|[0;1mp[0m|[0;1mp[0m|[0;1mb[0m|[7;1m [0m|[0;1mp[0m|[0;1mp[0m|[0;1mp[0m|| 2
[32;1m[Board] [0m  -------------------
[32;1m[Board] [0m1 || |[7;1m [0m|[0;1mr[0m|[7;1m [0m|[0;1mK[0m|[0;1mb[0m| |[0;1mr[0m|| 1
[32;1m[Board] [0m  -------------------
[32;1m[Board] [0m    a b c d e f g h
[32;1m[Board] [0m
[32;1m[Referee] [0mThis is the turn of the Black player...
Error: /data/julien/Pro/git/teaching/x/2024/remmato-iii/build/bin/../resources/openings does not exist or is not a directory
[32;1m[Game] [0mPlayer's error code: 0
[32;1m[Game] [0mChecking move validity...
[32;1m[Board] [0mInitializing board...
[32;1m[Board] [0mLoading history file `championship/lizzie-iii-remmato-iii/history.csv`...
[32;1m[Board] [0mLoaded 21 move(s).
[32;1m[Board] [0mLoading move file `championship/lizzie-iii-remmato-iii/move.csv`...
[32;1m[Board] [0mBlack player is playing e5 to b2.
[32;1m[Board] [0m[5;1mBlack Queen is taking White Pawn.[0m
[32;1m[Board] [0m
[32;1m[Board] [0m    a b c d e f g h 
[32;1m[Board] [0m  -------------------
[32;1m[Board] [0m8 ||[30;1mr[0m|[30;1mk[0m|[30;1mb[0m| |[30;1mK[0m|[30;1mb[0m|[7;1m [0m|[30;1mr[0m|| 8
[32;1m[Board] [0m  -------------------
[32;1m[Board] [0m7 || |[7;1m [0m|[30;1mp[0m|[30;1mp[0m| |[30;1mp[0m|[30;1mp[0m|[30;1mp[0m|| 7
[32;1m[Board] [0m  -------------------
[32;1m[Board] [0m6 ||[7;1m [0m|[30;1mp[0m|[7;1m [0m| |[7;1m [0m| |[7;1m [0m| || 6
[32;1m[Board] [0m  -------------------
[32;1m[Board] [0m5 ||[30;1mp[0m|[7;1m [0m| |[7;1m [0m| |[7;1m [0m| |[30;1mk[0m|| 5
[32;1m[Board] [0m  -------------------
[32;1m[Board] [0m4 ||[7;1m [0m| |[7;1m [0m| |[0;1mk[0m|[30;1mp[0m|[7;1m [0m| || 4
[32;1m[Board] [0m  -------------------
[32;1m[Board] [0m3 || |[7;1m [0m| |[0;1mp[0m| |[7;1m [0m| |[7;1m [0m|| 3
[32;1m[Board] [0m  -------------------
[32;1m[Board] [0m2 ||[0;1mp[0m|[30;1mQ[0m|[0;1mp[0m|[0;1mb[0m|[7;1m [0m|[0;1mp[0m|[0;1mp[0m|[0;1mp[0m|| 2
[32;1m[Board] [0m  -------------------
[32;1m[Board] [0m1 || |[7;1m [0m|[0;1mr[0m|[7;1m [0m|[0;1mK[0m|[0;1mb[0m| |[0;1mr[0m|| 1
[32;1m[Board] [0m  -------------------
[32;1m[Board] [0m    a b c d e f g h
[32;1m[Board] [0m
[32;1m[Referee] [0mThis is the turn of the White player...
Input file: championship/lizzie-iii-remmato-iii/history.csv
Output file: championship/lizzie-iii-remmato-iii/move.csv
Turn of: white
Succesful move
e2e4
8 | R N B Q K B N R 
7 | P P P P P P P P 
6 | _ _ _ _ _ _ _ _ 
5 | _ _ _ _ _ _ _ _ 
4 | _ _ _ _ P _ _ _ 
3 | _ _ _ _ _ _ _ _ 
2 | P P P P _ P P P 
1 | R N B Q K B N R 
-------------------
  | A B C D E F G H 

Turn of: black
Succesful move
e7e5
8 | R N B Q K B N R 
7 | P P P P _ P P P 
6 | _ _ _ _ _ _ _ _ 
5 | _ _ _ _ P _ _ _ 
4 | _ _ _ _ P _ _ _ 
3 | _ _ _ _ _ _ _ _ 
2 | P P P P _ P P P 
1 | R N B Q K B N R 
-------------------
  | A B C D E F G H 

Turn of: white
Succesful move
d1h5
8 | R N B Q K B N R 
7 | P P P P _ P P P 
6 | _ _ _ _ _ _ _ _ 
5 | _ _ _ _ P _ _ Q 
4 | _ _ _ _ P _ _ _ 
3 | _ _ _ _ _ _ _ _ 
2 | P P P P _ P P P 
1 | R N B _ K B N R 
-------------------
  | A B C D E F G H 

Turn of: black
Succesful move
g8f6
8 | R N B Q K B _ R 
7 | P P P P _ P P P 
6 | _ _ _ _ _ N _ _ 
5 | _ _ _ _ P _ _ Q 
4 | _ _ _ _ P _ _ _ 
3 | _ _ _ _ _ _ _ _ 
2 | P P P P _ P P P 
1 | R N B _ K B N R 
-------------------
  | A B C D E F G H 

Turn of: white
Succesful move
g1e2
8 | R N B Q K B _ R 
7 | P P P P _ P P P 
6 | _ _ _ _ _ N _ _ 
5 | _ _ _ _ P _ _ Q 
4 | _ _ _ _ P _ _ _ 
3 | _ _ _ _ _ _ _ _ 
2 | P P P P N P P P 
1 | R N B _ K B _ R 
-------------------
  | A B C D E F G H 

Turn of: black
Succesful move
f6h5
8 | R N B Q K B _ R 
7 | P P P P _ P P P 
6 | _ _ _ _ _ _ _ _ 
5 | _ _ _ _ P _ _ N 
4 | _ _ _ _ P _ _ _ 
3 | _ _ _ _ _ _ _ _ 
2 | P P P P N P P P 
1 | R N B _ K B _ R 
-------------------
  | A B C D E F G H 

Turn of: white
Succesful move
b1c3
8 | R N B Q K B _ R 
7 | P P P P _ P P P 
6 | _ _ _ _ _ _ _ _ 
5 | _ _ _ _ P _ _ N 
4 | _ _ _ _ P _ _ _ 
3 | _ _ N _ _ _ _ _ 
2 | P P P P N P P P 
1 | R _ B _ K B _ R 
-------------------
  | A B C D E F G H 

Turn of: black
Succesful move
a7a5
8 | R N B Q K B _ R 
7 | _ P P P _ P P P 
6 | _ _ _ _ _ _ _ _ 
5 | P _ _ _ P _ _ N 
4 | _ _ _ _ P _ _ _ 
3 | _ _ N _ _ _ _ _ 
2 | P P P P N P P P 
1 | R _ B _ K B _ R 
-------------------
  | A B C D E F G H 

Turn of: white
Succesful move
d2d3
8 | R N B Q K B _ R 
7 | _ P P P _ P P P 
6 | _ _ _ _ _ _ _ _ 
5 | P _ _ _ P _ _ N 
4 | _ _ _ _ P _ _ _ 
3 | _ _ N P _ _ _ _ 
2 | P P P _ N P P P 
1 | R _ B _ K B _ R 
-------------------
  | A B C D E F G H 

Turn of: black
Succesful move
d8h4
8 | R N B _ K B _ R 
7 | _ P P P _ P P P 
6 | _ _ _ _ _ _ _ _ 
5 | P _ _ _ P _ _ N 
4 | _ _ _ _ P _ _ Q 
3 | _ _ N P _ _ _ _ 
2 | P P P _ N P P P 
1 | R _ B _ K B _ R 
-------------------
  | A B C D E F G H 

Turn of: white
Succesful move
a1b1
8 | R N B _ K B _ R 
7 | _ P P P _ P P P 
6 | _ _ _ _ _ _ _ _ 
5 | P _ _ _ P _ _ N 
4 | _ _ _ _ P _ _ Q 
3 | _ _ N P _ _ _ _ 
2 | P P P _ N P P P 
1 | _ R B _ K B _ R 
-------------------
  | A B C D E F G H 

Turn of: black
Succesful move
h4g4
8 | R N B _ K B _ R 
7 | _ P P P _ P P P 
6 | _ _ _ _ _ _ _ _ 
5 | P _ _ _ P _ _ N 
4 | _ _ _ _ P _ Q _ 
3 | _ _ N P _ _ _ _ 
2 | P P P _ N P P P 
1 | _ R B _ K B _ R 
-------------------
  | A B C D E F G H 

Turn of: white
Succesful move
e2f4
8 | R N B _ K B _ R 
7 | _ P P P _ P P P 
6 | _ _ _ _ _ _ _ _ 
5 | P _ _ _ P _ _ N 
4 | _ _ _ _ P N Q _ 
3 | _ _ N P _ _ _ _ 
2 | P P P _ _ P P P 
1 | _ R B _ K B _ R 
-------------------
  | A B C D E F G H 

Turn of: black
Succesful move
e5f4
8 | R N B _ K B _ R 
7 | _ P P P _ P P P 
6 | _ _ _ _ _ _ _ _ 
5 | P _ _ _ _ _ _ N 
4 | _ _ _ _ P P Q _ 
3 | _ _ N P _ _ _ _ 
2 | P P P _ _ P P P 
1 | _ R B _ K B _ R 
-------------------
  | A B C D E F G H 

Turn of: white
Succesful move
c1d2
8 | R N B _ K B _ R 
7 | _ P P P _ P P P 
6 | _ _ _ _ _ _ _ _ 
5 | P _ _ _ _ _ _ N 
4 | _ _ _ _ P P Q _ 
3 | _ _ N P _ _ _ _ 
2 | P P P B _ P P P 
1 | _ R _ _ K B _ R 
-------------------
  | A B C D E F G H 

Turn of: black
Succesful move
b7b6
8 | R N B _ K B _ R 
7 | _ _ P P _ P P P 
6 | _ P _ _ _ _ _ _ 
5 | P _ _ _ _ _ _ N 
4 | _ _ _ _ P P Q _ 
3 | _ _ N P _ _ _ _ 
2 | P P P B _ P P P 
1 | _ R _ _ K B _ R 
-------------------
  | A B C D E F G H 

Turn of: white
Succesful move
e4e5
8 | R N B _ K B _ R 
7 | _ _ P P _ P P P 
6 | _ P _ _ _ _ _ _ 
5 | P _ _ _ P _ _ N 
4 | _ _ _ _ _ P Q _ 
3 | _ _ N P _ _ _ _ 
2 | P P P B _ P P P 
1 | _ R _ _ K B _ R 
-------------------
  | A B C D E F G H 

Turn of: black
Succesful move
g4g5
8 | R N B _ K B _ R 
7 | _ _ P P _ P P P 
6 | _ P _ _ _ _ _ _ 
5 | P _ _ _ P _ Q N 
4 | _ _ _ _ _ P _ _ 
3 | _ _ N P _ _ _ _ 
2 | P P P B _ P P P 
1 | _ R _ _ K B _ R 
-------------------
  | A B C D E F G H 

Turn of: white
Succesful move
b1c1
8 | R N B _ K B _ R 
7 | _ _ P P _ P P P 
6 | _ P _ _ _ _ _ _ 
5 | P _ _ _ P _ Q N 
4 | _ _ _ _ _ P _ _ 
3 | _ _ N P _ _ _ _ 
2 | P P P B _ P P P 
1 | _ _ R _ K B _ R 
-------------------
  | A B C D E F G H 

Turn of: black
Succesful move
g5e5
8 | R N B _ K B _ R 
7 | _ _ P P _ P P P 
6 | _ P _ _ _ _ _ _ 
5 | P _ _ _ Q _ _ N 
4 | _ _ _ _ _ P _ _ 
3 | _ _ N P _ _ _ _ 
2 | P P P B _ P P P 
1 | _ _ R _ K B _ R 
-------------------
  | A B C D E F G H 

Turn of: white
Succesful move
c3e4
8 | R N B _ K B _ R 
7 | _ _ P P _ P P P 
6 | _ P _ _ _ _ _ _ 
5 | P _ _ _ Q _ _ N 
4 | _ _ _ _ N P _ _ 
3 | _ _ _ P _ _ _ _ 
2 | P P P B _ P P P 
1 | _ _ R _ K B _ R 
-------------------
  | A B C D E F G H 

Turn of: black
Succesful move
e5b2
8 | R N B _ K B _ R 
7 | _ _ P P _ P P P 
6 | _ P _ _ _ _ _ _ 
5 | P _ _ _ _ _ _ N 
4 | _ _ _ _ N P _ _ 
3 | _ _ _ P _ _ _ _ 
2 | P Q P B _ P P P 
1 | _ _ R _ K B _ R 
-------------------
[...]
[32;1m[Board] [0m  -------------------
[32;1m[Board] [0m8 ||[30;1mr[0m|[30;1mk[0m|[7;1m [0m| |[30;1mK[0m|[30;1mb[0m|[7;1m [0m| || 8
[32;1m[Board] [0m  -------------------
[32;1m[Board] [0m7 || |[7;1m [0m|[30;1mp[0m|[7;1m [0m| |[30;1mp[0m|[30;1mp[0m|[30;1mr[0m|| 7
[32;1m[Board] [0m  -------------------
[32;1m[Board] [0m6 ||[7;1m [0m| |[7;1m [0m| |[7;1m [0m| |[7;1m [0m| || 6
[32;1m[Board] [0m  -------------------
[32;1m[Board] [0m5 ||[30;1mp[0m|[7;1m [0m| |[7;1m [0m| |[7;1m [0m| |[7;1m [0m|| 5
[32;1m[Board] [0m  -------------------
[32;1m[Board] [0m4 ||[7;1m [0m|[30;1mQ[0m|[0;1mp[0m| |[7;1m [0m|[30;1mp[0m|[7;1m [0m| || 4
[32;1m[Board] [0m  -------------------
[32;1m[Board] [0m3 || |[7;1m [0m|[0;1mr[0m|[0;1mp[0m| |[30;1mb[0m|[0;1mp[0m|[7;1m [0m|| 3
[32;1m[Board] [0m  -------------------
[32;1m[Board] [0m2 ||[0;1mp[0m| |[7;1m [0m|[0;1mK[0m|[7;1m [0m|[0;1mb[0m|[7;1m [0m| || 2
[32;1m[Board] [0m  -------------------
[32;1m[Board] [0m1 || |[7;1m [0m| |[7;1m [0m| |[0;1mb[0m| |[7;1m [0m|| 1
[32;1m[Board] [0m  -------------------
[32;1m[Board] [0m    a b c d e f g h
[32;1m[Board] [0m
[32;1m[Referee] [0mThis is the turn of the Black player...
Error: /data/julien/Pro/git/teaching/x/2024/remmato-iii/build/bin/../resources/openings does not exist or is not a directory
[32;1m[Game] [0mPlayer's error code: 0
[32;1m[Game] [0mChecking move validity...
[32;1m[Board] [0mInitializing board...
[32;1m[Board] [0mLoading history file `championship/lizzie-iii-remmato-iii/history.csv`...
[32;1m[Board] [0mLoaded 49 move(s).
[32;1m[Board] [0mLoading move file `championship/lizzie-iii-remmato-iii/move.csv`...
[32;1m[Board] [0mBlack player is playing b4 to b2.
[32;1m[Board] [0m
[32;1m[Board] [0m    a b c d e f g h 
[32;1m[Board] [0m  -------------------
[32;1m[Board] [0m8 ||[30;1mr[0m|[30;1mk[0m|[7;1m [0m| |[30;1mK[0m|[30;1mb[0m|[7;1m [0m| || 8
[32;1m[Board] [0m  -------------------
[32;1m[Board] [0m7 || |[7;1m [0m|[30;1mp[0m|[7;1m [0m| |[30;1mp[0m|[30;1mp[0m|[30;1mr[0m|| 7
[32;1m[Board] [0m  -------------------
[32;1m[Board] [0m6 ||[7;1m [0m| |[7;1m [0m| |[7;1m [0m| |[7;1m [0m| || 6
[32;1m[Board] [0m  -------------------
[32;1m[Board] [0m5 ||[30;1mp[0m|[7;1m [0m| |[7;1m [0m| |[7;1m [0m| |[7;1m [0m|| 5
[32;1m[Board] [0m  -------------------
[32;1m[Board] [0m4 ||[7;1m [0m| |[0;1mp[0m| |[7;1m [0m|[30;1mp[0m|[7;1m [0m| || 4
[32;1m[Board] [0m  -------------------
[32;1m[Board] [0m3 || |[7;1m [0m|[0;1mr[0m|[0;1mp[0m| |[30;1mb[0m|[0;1mp[0m|[7;1m [0m|| 3
[32;1m[Board] [0m  -------------------
[32;1m[Board] [0m2 ||[0;1mp[0m|[30;1mQ[0m|[7;1m [0m|[0;1mK[0m|[7;1m [0m|[0;1mb[0m|[7;1m [0m| || 2
[32;1m[Board] [0m  -------------------
[32;1m[Board] [0m1 || |[7;1m [0m| |[7;1m [0m| |[0;1mb[0m| |[7;1m [0m|| 1
[32;1m[Board] [0m  -------------------
[32;1m[Board] [0m    a b c d e f g h
[32;1m[Board] [0m
[32;1m[Referee] [0mThis is the turn of the White player...
[32;1m[Board] [0m[33;1m[WARNING][0m [5;1mWhite King in check![0m
[32;1m[Board] [0m[33;1m[WARNING][0m    Threatened by Black Queen (b2)
Input file: championship/lizzie-iii-remmato-iii/history.csv
Output file: championship/lizzie-iii-remmato-iii/move.csv
Turn of: white
Succesful move
e2e4
8 | R N B Q K B N R 
7 | P P P P P P P P 
6 | _ _ _ _ _ _ _ _ 
5 | _ _ _ _ _ _ _ _ 
4 | _ _ _ _ P _ _ _ 
3 | _ _ _ _ _ _ _ _ 
2 | P P P P _ P P P 
1 | R N B Q K B N R 
-------------------
  | A B C D E F G H 

Turn of: black
Succesful move
e7e5
8 | R N B Q K B N R 
7 | P P P P _ P P P 
6 | _ _ _ _ _ _ _ _ 
5 | _ _ _ _ P _ _ _ 
4 | _ _ _ _ P _ _ _ 
3 | _ _ _ _ _ _ _ _ 
2 | P P P P _ P P P 
1 | R N B Q K B N R 
-------------------
  | A B C D E F G H 

Turn of: white
Succesful move
d1h5
8 | R N B Q K B N R 
7 | P P P P _ P P P 
6 | _ _ _ _ _ _ _ _ 
5 | _ _ _ _ P _ _ Q 
4 | _ _ _ _ P _ _ _ 
3 | _ _ _ _ _ _ _ _ 
2 | P P P P _ P P P 
1 | R N B _ K B N R 
-------------------
  | A B C D E F G H 

Turn of: black
Succesful move
g8f6
8 | R N B Q K B _ R 
7 | P P P P _ P P P 
6 | _ _ _ _ _ N _ _ 
5 | _ _ _ _ P _ _ Q 
4 | _ _ _ _ P _ _ _ 
3 | _ _ _ _ _ _ _ _ 
2 | P P P P _ P P P 
1 | R N B _ K B N R 
-------------------
  | A B C D E F G H 

Turn of: white
Succesful move
g1e2
8 | R N B Q K B _ R 
7 | P P P P _ P P P 
6 | _ _ _ _ _ N _ _ 
5 | _ _ _ _ P _ _ Q 
4 | _ _ _ _ P _ _ _ 
3 | _ _ _ _ _ _ _ _ 
2 | P P P P N P P P 
1 | R N B _ K B _ R 
-------------------
  | A B C D E F G H 

Turn of: black
Succesful move
f6h5
8 | R N B Q K B _ R 
7 | P P P P _ P P P 
6 | _ _ _ _ _ _ _ _ 
5 | _ _ _ _ P _ _ N 
4 | _ _ _ _ P _ _ _ 
3 | _ _ _ _ _ _ _ _ 
2 | P P P P N P P P 
1 | R N B _ K B _ R 
-------------------
  | A B C D E F G H 

Turn of: white
Succesful move
b1c3
8 | R N B Q K B _ R 
7 | P P P P _ P P P 
6 | _ _ _ _ _ _ _ _ 
5 | _ _ _ _ P _ _ N 
4 | _ _ _ _ P _ _ _ 
3 | _ _ N _ _ _ _ _ 
2 | P P P P N P P P 
1 | R _ B _ K B _ R 
-------------------
  | A B C D E F G H 

Turn of: black
Succesful move
a7a5
8 | R N B Q K B _ R 
7 | _ P P P _ P P P 
6 | _ _ _ _ _ _ _ _ 
5 | P _ _ _ P _ _ N 
4 | _ _ _ _ P _ _ _ 
3 | _ _ N _ _ _ _ _ 
2 | P P P P N P P P 
1 | R _ B _ K B _ R 
-------------------
  | A B C D E F G H 

Turn of: white
Succesful move
d2d3
8 | R N B Q K B _ R 
7 | _ P P P _ P P P 
6 | _ _ _ _ _ _ _ _ 
5 | P _ _ _ P _ _ N 
4 | _ _ _ _ P _ _ _ 
3 | _ _ N P _ _ _ _ 
2 | P P P _ N P P P 
1 | R _ B _ K B _ R 
-------------------
  | A B C D E F G H 

Turn of: black
Succesful move
d8h4
8 | R N B _ K B _ R 
7 | _ P P P _ P P P 
6 | _ _ _ _ _ _ _ _ 
5 | P _ _ _ P _ _ N 
4 | _ _ _ _ P _ _ Q 
3 | _ _ N P _ _ _ _ 
2 | P P P _ N P P P 
1 | R _ B _ K B _ R 
-------------------
  | A B C D E F G H 

Turn of: white
Succesful move
a1b1
8 | R N B _ K B _ R 
7 | _ P P P _ P P P 
6 | _ _ _ _ _ _ _ _ 
5 | P _ _ _ P _ _ N 
4 | _ _ _ _ P _ _ Q 
3 | _ _ N P _ _ _ _ 
2 | P P P _ N P P P 
1 | _ R B _ K B _ R 
-------------------
  | A B C D E F G H 

Turn of: black
Succesful move
h4g4
8 | R N B _ K B _ R 
7 | _ P P P _ P P P 
6 | _ _ _ _ _ _ _ _ 
5 | P _ _ _ P _ _ N 
4 | _ _ _ _ P _ Q _ 
3 | _ _ N P _ _ _ _ 
2 | P P P _ N P P P 
1 | _ R B _ K B _ R 
-------------------
  | A B C D E F G H 

Turn of: white
Succesful move
e2f4
8 | R N B _ K B _ R 
7 | _ P P P _ P P P 
6 | _ _ _ _ _ _ _ _ 
5 | P _ _ _ P _ _ N 
4 | _ _ _ _ P N Q _ 
3 | _ _ N P _ _ _ _ 
2 | P P P _ _ P P P 
1 | _ R B _ K B _ R 
-------------------
  | A B C D E F G H 

Turn of: black
Succesful move
e5f4
8 | R N B _ K B _ R 
7 | _ P P P _ P P P 
6 | _ _ _ _ _ _ _ _ 
5 | P _ _ _ _ _ _ N 
4 | _ _ _ _ P P Q _ 
3 | _ _ N P _ _ _ _ 
2 | P P P _ _ P P P 
1 | _ R B _ K B _ R 
-------------------
  | A B C D E F G H 

Turn of: white
Succesful move
c1d2
8 | R N B _ K B _ R 
7 | _ P P P _ P P P 
6 | _ _ _ _ _ _ _ _ 
5 | P _ _ _ _ _ _ N 
4 | _ _ _ _ P P Q _ 
3 | _ _ N P _ _ _ _ 
2 | P P P B _ P P P 
1 | _ R _ _ K B _ R 
-------------------
  | A B C D E F G H 

Turn of: black
Succesful move
b7b6
8 | R N B _ K B _ R 
7 | _ _ P P _ P P P 
6 | _ P _ _ _ _ _ _ 
5 | P _ _ _ _ _ _ N 
4 | _ _ _ _ P P Q _ 
3 | _ _ N P _ _ _ _ 
2 | P P P B _ P P P 
1 | _ R _ _ K B _ R 
-------------------
  | A B C D E F G H 

Turn of: white
Succesful move
e4e5
8 | R N B _ K B _ R 
7 | _ _ P P _ P P P 
6 | _ P _ _ _ _ _ _ 
5 | P _ _ _ P _ _ N 
4 | _ _ _ _ _ P Q _ 
3 | _ _ N P _ _ _ _ 
2 | P P P B _ P P P 
1 | _ R _ _ K B _ R 
-------------------
  | A B C D E F G H 

Turn of: black
Succesful move
g4g5
8 | R N B _ K B _ R 
7 | _ _ P P _ P P P 
6 | _ P _ _ _ _ _ _ 
5 | P _ _ _ P _ Q N 
4 | _ _ _ _ _ P _ _ 
3 | _ _ N P _ _ _ _ 
2 | P P P B _ P P P 
1 | _ R _ _ K B _ R 
-------------------
  | A B C D E F G H 

Turn of: white
Succesful move
b1c1
8 | R N B _ K B _ R 
7 | _ _ P P _ P P P 
6 | _ P _ _ _ _ _ _ 
5 | P _ _ _ P _ Q N 
4 | _ _ _ _ _ P _ _ 
3 | _ _ N P _ _ _ _ 
2 | P P P B _ P P P 
1 | _ _ R _ K B _ R 
-------------------
  | A B C D E F G H 

Turn of: black
Succesful move
g5e5
8 | R N B _ K B _ R 
7 | _ _ P P _ P P P 
6 | _ P _ _ _ _ _ _ 
5 | P _ _ _ Q _ _ N 
4 | _ _ _ _ _ P _ _ 
3 | _ _ N P _ _ _ _ 
2 | P P P B _ P P P 
1 | _ _ R _ K B _ R 
-------------------
  | A B C D E F G H 

Turn of: white
Succesful move
c3e4
8 | R N B _ K B _ R 
7 | _ _ P P _ P P P 
6 | _ P _ _ _ _ _ _ 
5 | P _ _ _ Q _ _ N 
4 | _ _ _ _ N P _ _ 
3 | _ _ _ P _ _ _ _ 
2 | P P P B _ P P P 
1 | _ _ R _ K B _ R 
-------------------
  | A B C D E F G H 

Turn of: black
Succesful move
e5b2
8 | R N B _ K B _ R 
7 | _ _ P P _ P P P 
6 | _ P _ _ _ _ _ _ 
5 | P _ _ _ _ _ _ N 
4 | _ _ _ _ N P _ _ 
3 | _ _ _ P _ _ _ _ 
2 | P Q P B _ P P P 
1 | _ _ R _ K B _ R 
-------------------
  | A B C D E F G H 

Turn of: white
Succesful move
d2e3
8 | R N B _ K B _ R 
7 | _ _ P P _ P P P 
6 | _ P _ _ _ _ _ _ 
5 | P _ _ _ _ _ _ N 
4 | _ _ _ _ N P _ _ 
3 | _ _ _ P B _ _ _ 
2 | P Q P _ _ P P P 
1 | _ _ R _ K B _ R 
-------------------
  | A B C D E F G H 

Turn of: black
Succesful move
b2b4
8 | R N B _ K B _ R 
7 | _ _ P P _ P P P 
6 | _ P _ _ _ _ _ _ 
5 | P _ _ _ _ _ _ N 
4 | _ Q _ _ N P _ _ 
3 | _ _ _ P B _ _ _ 
2 | P _ P _ _ P P P 
1 | _ _ R _ K B _ R 
-------------------
  | A B C D E F G H 

Turn of: white
Succesful move
e1e2
8 | R N B _ K B _ R 
7 | _ _ P P _ P P P 
6 | _ P _ _ _ _ _ _ 
5 | P _ _ _ _ _ _ N 
4 | _ Q _ _ N P _ _ 
3 | _ _ _ P B _ _ _ 
2 | P _ P _ K P P P 
1 | _ _ R _ _ B _ R 
-------------------
  | A B C D E F G H 

Turn of: black
Succesful move
h5g3
8 | R N B _ K B _ R 
7 | _ _ P P _ P P P 
6 | _ P _ _ _ _ _ _ 
5 | P _ _ _ _ _ _ _ 
4 | _ Q _ _ N P _ _ 
3 | _ _ _ P B _ N _ 
2 | P _ P _ K P P P 
1 | _ _ R _ _ B _ R 
-------------------
  | A B C D E F G H 

Turn of: white
Succesful move
h2g3
8 | R N B _ K B _ R 
7 | _ _ P P _ P P P 
6 | _ P _ _ _ _ _ _ 
5 | P _ _ _ _ _ _ _ 
4 | _ Q _ _ N P _ _ 
3 | _ _ _ P B _ P _ 
2 | P _ P _ K P P _ 
1 | _ _ R _ _ B _ R 
-------------------
  | A B C D E F G H 

Turn of: black
Succesful move
d7d5
8 | R N B _ K B _ R 
7 | _ _ P _ _ P P P 
6 | _ P _ _ _ _ _ _ 
5 | P _ _ P _ _ _ _ 
4 | _ Q _ _ N P _ _ 
3 | _ _ _ P B _ P _ 
2 | P _ P _ K P P _ 
1 | _ _ R _ _ B _ R 
-------------------
  | A B C D E F G H 

Turn of: white
Succesful move
h1h7
8 | R N B _ K B _ R 
7 | _ _ P _ _ P P R 
6 | _ P _ _ _ _ _ _ 
5 | P _ _ P _ _ _ _ 
4 | _ Q _ _ N P _ _ 
3 | _ _ _ P B _ P _ 
2 | P _ P _ K P P _ 
1 | _ _ R _ _ B _ _ 
-------------------
  | A B C D E F G H 

Turn of: black
Succesful move
c8g4
8 | R N _ _ K B _ R 
7 | _ _ P _ _ P P R 
6 | _ P _ _ _ _ _ _ 
5 | P _ _ P _ _ _ _ 
4 | _ Q _ _ N P B _ 
3 | _ _ _ P B _ P _ 
2 | P _ P _ K P P _ 
1 | _ _ R _ _ B _ _ 
-------------------
  | A B C D E F G H 

Turn of: white
Succesful move
f2f3
8 | R N _ _ K B _ R 
7 | _ _ P _ _ P P R 
6 | _ P _ _ _ _ _ _ 
5 | P _ _ P _ _ _ _ 
4 | _ Q _ _ N P B _ 
3 | _ _ _ P B P P _ 
2 | P _ P _ K _ P _ 
1 | _ _ R _ _ B _ _ 
-------------------
  | A B C D E F G H 

Turn of: black
Succesful move
h8h7
8 | R N _ _ K B _ _ 
7 | _ _ P _ _ P P R 
6 | _ P _ _ _ _ _ _ 
5 | P _ _ P _ _ _ _ 
4 | _ Q _ _ N P B _ 
3 | _ _ _ P B P P _ 
2 | P _ P _ K _ P _ 
1 | _ _ R _ _ B _ _ 
-------------------
  | A B C D E F G H 

Turn of: white
Succesful move
e3b6
8 | R N _ _ K B _ _ 
7 | _ _ P _ _ P P R 
6 | _ B _ _ _ _ _ _ 
5 | P _ _ P _ _ _ _ 
4 | _ Q _ _ N P B _ 
3 | _ _ _ P _ P P _ 
2 | P _ P _ K _ P _ 
1 | _ _ R _ _ B _ _ 
-------------------
  | A B C D E F G H 

Turn of: black
Succesful move
d5e4
8 | R N _ _ K B _ _ 
7 | _ _ P _ _ P P R 
6 | _ B _ _ _ _ _ _ 
5 | P _ _ _ _ _ _ _ 
4 | _ Q _ _ P P B _ 
3 | _ _ _ P _ P P _ 
2 | P _ P _ K _ P _ 
1 | _ _ R _ _ B _ _ 
-------------------
  | A B C D E F G H 

Turn of: white
Succesful move
b6f2
8 | R N _ _ K B _ _ 
7 | _ _ P _ _ P P R 
6 | _ _ _ _ _ _ _ _ 
5 | P _ _ _ _ _ _ _ 
4 | _ Q _ _ P P B _ 
3 | _ _ _ P _ P P _ 
2 | P _ P _ K B P _ 
1 | _ _ R _ _ B _ _ 
-------------------
  | A B C D E F G H 

Turn of: black
Succesful move
e4f3
8 | R N _ _ K B _ _ 
7 | _ _ P _ _ P P R 
6 | _ _ _ _ _ _ _ _ 
5 | P _ _ _ _ _ _ _ 
4 | _ Q _ _ _ P B _ 
3 | _ _ _ P _ P P _ 
2 | P _ P _ K B P _ 
1 | _ _ R _ _ B _ _ 
-------------------
  | A B C D E F G H 

Turn of: white
Succesful move
g2f3
8 | R N _ _ K B _ _ 
7 | _ _ P _ _ P P R 
6 | _ _ _ _ _ _ _ _ 
5 | P _ _ _ _ _ _ _ 
4 | _ Q _ _ _ P B _ 
3 | _ _ _ P _ P P _ 
2 | P _ P _ K B _ _ 
1 | _ _ R _ _ B _ _ 
-------------------
  | A B C D E F G H 

Turn of: black
Succesful move
b4e7
8 | R N _ _ K B _ _ 
7 | _ _ P _ Q P P R 
6 | _ _ _ _ _ _ _ _ 
5 | P _ _ _ _ _ _ _ 
4 | _ _ _ _ _ P B _ 
3 | _ _ _ P _ P P _ 
2 | P _ P _ K B _ _ 
1 | _ _ R _ _ B _ _ 
-------------------
  | A B C D E F G H 

Turn of: white
Succesful move
e2d1
8 | R N _ _ K B _ _ 
7 | _ _ P _ Q P P R 
6 | _ _ _ _ _ _ _ _ 
5 | P _ _ _ _ _ _ _ 
4 | _ _ _ _ _ P B _ 
3 | _ _ _ P _ P P _ 
2 | P _ P _ _ B _ _ 
1 | _ _ R K _ B _ _ 
-------------------
  | A B C D E F G H 

Turn of: black
Succesful move
g4f3
8 | R N _ _ K B _ _ 
7 | _ _ P _ Q P P R 
6 | _ _ _ _ _ _ _ _ 
5 | P _ _ _ _ _ _ _ 
4 | _ _ _ _ _ P _ _ 
3 | _ _ _ P _ B P _ 
2 | P _ P _ _ B _ _ 
1 | _ _ R K _ B _ _ 
-------------------
  | A B C D E F G H 

Turn of: white
Succesful move
d1d2
8 | R N _ _ K B _ _ 
7 | _ _ P _ Q P P R 
6 | _ _ _ _ _ _ _ _ 
5 | P _ _ _ _ _ _ _ 
4 | _ _ _ _ _ P _ _ 
3 | _ _ _ P _ B P _ 
2 | P _ P K _ B _ _ 
1 | _ _ R _ _ B _ _ 
-------------------
  | A B C D E F G H 

Turn of: black
Succesful move
e7b4
8 | R N _ _ K B _ _ 
7 | _ _ P _ _ P P R 
6 | _ _ _ _ _ _ _ _ 
5 | P _ _ _ _ _ _ _ 
4 | _ Q _ _ _ P _ _ 
3 | _ _ _ P _ B P _ 
2 | P _ P K _ B _ _ 
1 | _ _ R _ _ B _ _ 
-------------------
  | A B C D E F G H 

Turn of: white
Succesful move
c2c3
8 | R N _ _ K B _ _ 
7 | _ _ P _ _ P P R 
6 | _ _ _ _ _ _ _ _ 
5 | P _ _ _ _ _ _ _ 
4 | _ Q _ _ _ P _ _ 
3 | _ _ P P _ B P _ 
2 | P _ _ K _ B _ _ 
1 | _ _ R _ _ B _ _ 
-------------------
  | A B C D E F G H 

Turn of: black
Succesful move
b4b2
8 | R N _ _ K B _ _ 
7 | _ _ P _ _ P P R 
6 | _ _ _ _ _ _ _ _ 
5 | P _ _ _ _ _ _ _ 
4 | _ _ _ _ _ P _ _ 
3 | _ _ P P _ B P _ 
2 | P Q _ K _ B _ _ 
1 | _ _ R _ _ B _ _ 
-------------------
  | A B C D E F G H 

Turn of: white
Succesful move
c1c2
8 | R N _ _ K B _ _ 
7 | _ _ P _ _ P P R 
6 | _ _ _ _ _ _ _ _ 
5 | P _ _ _ _ _ _ _ 
4 | _ _ _ _ _ P _ _ 
3 | _ _ P P _ B P _ 
2 | P Q R K _ B _ _ 
1 | _ _ _ _ _ B _ _ 
-------------------
  | A B C D E F G H 

Turn of: black
Succesful move
b2b1
8 | R N _ _ K B _ _ 
7 | _ _ P _ _ P P R 
6 | _ _ _ _ _ _ _ _ 
5 | P _ _ _ _ _ _ _ 
4 | _ _ _ _ _ P _ _ 
3 | _ _ P P _ B P _ 
2 | P _ R K _ B _ _ 
1 | _ Q _ _ _ B _ _ 
-------------------
  | A B C D E F G H 

Turn of: white
Succesful move
c3c4
8 | R N _ _ K B _ _ 
7 | _ _ P _ _ P P R 
6 | _ _ _ _ _ _ _ _ 
5 | P _ _ _ _ _ _ _ 
4 | _ _ P _ _ P _ _ 
3 | _ _ _ P _ B P _ 
2 | P _ R K _ B _ _ 
1 | _ Q _ _ _ B _ _ 
-------------------
  | A B C D E F G H 

Turn of: black
Succesful move
b1b4
8 | R N _ _ K B _ _ 
7 | _ _ P _ _ P P R 
6 | _ _ _ _ _ _ _ _ 
5 | P _ _ _ _ _ _ _ 
4 | _ Q P _ _ P _ _ 
3 | _ _ _ P _ B P _ 
2 | P _ R K _ B _ _ 
1 | _ _ _ _ _ B _ _ 
-------------------
  | A B C D E F G H 

Turn of: white
Succesful move
c2c3
8 | R N _ _ K B _ _ 
7 | _ _ P _ _ P P R 
6 | _ _ _ _ _ _ _ _ 
5 | P _ _ _ _ _ _ _ 
4 | _ Q P _ _ P _ _ 
3 | _ _ R P _ B P _ 
2 | P _ _ K _ B _ _ 
1 | _ _ _ _ _ B _ _ 
-------------------
  | A B C D E F G H 

Turn of: black
Succesful move
b4b2
8 | R N _ _ K B _ _ 
7 | _ _ P _ _ P P R 
6 | _ _ _ _ _ _ _ _ 
5 | P _ _ _ _ _ _ _ 
4 | _ _ P _ _ P _ _ 
3 | _ _ R P _ B P _ 
2 | P Q _ K _ B _ _ 
1 | _ _ _ _ _ B _ _ 
-------------------
  | A B C D E F G H 

We are playing as White
Move history:
e2e4
e7e5
d1h5
g8f6
g1e2
f6h5
b1c3
a7a5
d2d3
d8h4
a1b1
h4g4
e2f4
e5f4
c1d2
b7b6
e4e5
g4g5
b1c1
g5e5
c3e4
e5b2
d2e3
b2b4
e1e2
h5g3
h2g3
d7d5
h1h7
c8g4
f2f3
h8h7
e3b6
d5e4
b6f2
e4f3
g2f3
b4e7
e2d1
g4f3
d1d2
e7b4
c2c3
b4b2
c1c2
b2b1
c3c4
b1b4
c2c3
b4b2
8 | R N _ _ K B _ _ 
7 | _ _ P _ _ P P R 
6 | _ _ _ _ _ _ _ _ 
5 | P _ _ _ _ _ _ _ 
4 | _ _ P _ _ P _ _ 
3 | _ _ R P _ B P _ 
2 | P Q _ K _ B _ _ 
1 | _ _ _ _ _ B _ _ 
-------------------
  | A B C D E F G H 

It is white's turn to play.
AI's move: d2e1
Move written: d2e1
[32;1m[Game] [0mPlayer's error code: 0
[32;1m[Game] [0mChecking move validity...
[32;1m[Board] [0mInitializing board...
[32;1m[Board] [0mLoading history file `championship/lizzie-iii-remmato-iii/history.csv`...
[32;1m[Board] [0mLoaded 50 move(s).
[32;1m[Board] [0mLoading move file `championship/lizzie-iii-remmato-iii/move.csv`...
[32;1m[Board] [0mWhite player is playing d2 to e1.
[32;1m[Board] [0m
[32;1m[Board] [0m    a b c d e f g h 
[32;1m[Board] [0m  -------------------
[32;1m[Board] [0m8 ||[30;1mr[0m|[30;1mk[0m|[7;1m [0m| |[30;1mK[0m|[30;1mb[0m|[7;1m [0m| || 8
[32;1m[Board] [0m  -------------------
[32;1m[Board] [0m7 || |[7;1m [0m|[30;1mp[0m|[7;1m [0m| |[30;1mp[0m|[30;1mp[0m|[30;1mr[0m|| 7
[32;1m[Board] [0m  -------------------
[32;1m[Board] [0m6 ||[7;1m [0m| |[7;1m [0m| |[7;1m [0m| |[7;1m [0m| || 6
[32;1m[Board] [0m  -------------------
[32;1m[Board] [0m5 ||[30;1mp[0m|[7;1m [0m| |[7;1m [0m| |[7;1m [0m| |[7;1m [0m|| 5
[32;1m[Board] [0m  -------------------
[32;1m[Board] [0m4 ||[7;1m [0m| |[0;1mp[0m| |[7;1m [0m|[30;1mp[0m|[7;1m [0m| || 4
[32;1m[Board] [0m  -------------------
[32;1m[Board] [0m3 || |[7;1m [0m|[0;1mr[0m|[0;1mp[0m| |[30;1mb[0m|[0;1mp[0m|[7;1m [0m|| 3
[32;1m[Board] [0m  -------------------
[32;1m[Board] [0m2 ||[0;1mp[0m|[30;1mQ[0m|[7;1m [0m| |[7;1m [0m|[0;1mb[0m|[7;1m [0m| || 2
[32;1m[Board] [0m  -------------------
[32;1m[Board] [0m1 || |[7;1m [0m| |[7;1m [0m|[0;1mK[0m|[0;1mb[0m| |[7;1m [0m|| 1
[32;1m[Board] [0m  -------------------
[32;1m[Board] [0m    a b c d e f g h
[32;1m[Board] [0m
[32;1m[Referee] [0mThis is the turn of the Black player...
Error: /data/julien/Pro/git/teaching/x/2024/remmato-iii/build/bin/../resources/openings does not exist or is not a directory
[32;1m[Game] [0mPlayer's error code: 0
[32;1m[Game] [0mChecking move validity...
[32;1m[Board] [0mInitializing board...
[32;1m[Board] [0mLoading history file `championship/lizzie-iii-remmato-iii/history.csv`...
[32;1m[Board] [0mLoaded 51 move(s).
[32;1m[Board] [0mLoading move file `championship/lizzie-iii-remmato-iii/move.csv`...
[32;1m[Board] [0mBlack player is playing b2 to c3.
[32;1m[Board] [0m[5;1mBlack Queen is taking White Rook.[0m
[32;1m[Board] [0m
[32;1m[Board] [0m    a b c d e f g h 
[32;1m[Board] [0m  -------------------
[32;1m[Board] [0m8 ||[30;1mr[0m|[30;1mk[0m|[7;1m [0m| |[30;1mK[0m|[30;1mb[0m|[7;1m [0m| || 8
[32;1m[Board] [0m  -------------------
[32;1m[Board] [0m7 || |[7;1m [0m|[30;1mp[0m|[7;1m [0m| |[30;1mp[0m|[30;1mp[0m|[30;1mr[0m|| 7
[32;1m[Board] [0m  -------------------
[32;1m[Board] [0m6 ||[7;1m [0m| |[7;1m [0m| |[7;1m [0m| |[7;1m [0m| || 6
[32;1m[Board] [0m  -------------------
[32;1m[Board] [0m5 ||[30;1mp[0m|[7;1m [0m| |[7;1m [0m| |[7;1m [0m| |[7;1m [0m|| 5
[32;1m[Board] [0m  -------------------
[32;1m[Board] [0m4 ||[7;1m [0m| |[0;1mp[0m| |[7;1m [0m|[30;1mp[0m|[7;1m [0m| || 4
[32;1m[Board] [0m  -------------------
[32;1m[Board] [0m3 || |[7;1m [0m|[30;1mQ[0m|[0;1mp[0m| |[30;1mb[0m|[0;1mp[0m|[7;1m [0m|| 3
[32;1m[Board] [0m  -------------------
[32;1m[Board] [0m2 ||[0;1mp[0m| |[7;1m [0m| |[7;1m [0m|[0;1mb[0m|[7;1m [0m| || 2
[32;1m[Board] [0m  -------------------
[32;1m[Board] [0m1 || |[7;1m [0m| |[7;1m [0m|[0;1mK[0m|[0;1mb[0m| |[7;1m [0m|| 1
[32;1m[Board] [0m  -------------------
[32;1m[Board] [0m    a b c d e f g h
[32;1m[Board] [0m
[32;1m[Referee] [0mThis is the turn of the White player...
[32;1m[Board] [0m[33;1m[WARNING][0m [5;1mWhite King in checkmate![0m
[32;1m[Board] [0m[33;1m[WARNING][0m The Black player wins!
