[32;1m[Board] [0mInitializing board...
[32;1m[Board] [0m
[32;1m[Board] [0m    a b c d e f g h 
[32;1m[Board] [0m  -------------------
[32;1m[Board] [0m8 ||[30;1mr[0m|[30;1mk[0m|[30;1mb[0m|[30;1mQ[0m|[30;1mK[0m|[30;1mb[0m|[30;1mk[0m|[30;1mr[0m|| 8
[32;1m[Board] [0m  -------------------
[32;1m[Board] [0m7 ||[30;1mp[0m|[30;1mp[0m|[30;1mp[0m|[30;1mp[0m|[30;1mp[0m|[30;1mp[0m|[30;1mp[0m|[30;1mp[0m|| 7
[32;1m[Board] [0m  -------------------
[32;1m[Board] [0m6 ||[7;1m [0m| |[7;1m [0m| |[7;1m [0m| |[7;1m [0m| || 6
[32;1m[Board] [0m  -------------------
[32;1m[Board] [0m5 || |[7;1m [0m| |[7;1m [0m| |[7;1m [0m| |[7;1m [0m|| 5
[32;1m[Board] [0m  -------------------
[32;1m[Board] [0m4 ||[7;1m [0m| |[7;1m [0m| |[7;1m [0m| |[7;1m [0m| || 4
[32;1m[Board] [0m  -------------------
[32;1m[Board] [0m3 || |[7;1m [0m| |[7;1m [0m| |[7;1m [0m| |[7;1m [0m|| 3
[32;1m[Board] [0m  -------------------
[32;1m[Board] [0m2 ||[0;1mp[0m|[0;1mp[0m|[0;1mp[0m|[0;1mp[0m|[0;1mp[0m|[0;1mp[0m|[0;1mp[0m|[0;1mp[0m|| 2
[32;1m[Board] [0m  -------------------
[32;1m[Board] [0m1 ||[0;1mr[0m|[0;1mk[0m|[0;1mb[0m|[0;1mQ[0m|[0;1mK[0m|[0;1mb[0m|[0;1mk[0m|[0;1mr[0m|| 1
[32;1m[Board] [0m  -------------------
[32;1m[Board] [0m    a b c d e f g h
[32;1m[Board] [0m
[32;1m[Referee] [0mThis is the turn of the White player...
Input file: championship/lizzie-iii-shallowcyan/history.csv
Output file: championship/lizzie-iii-shallowcyan/move.csv
We are playing as White
Move history:
8 | R N B Q K B N R 
7 | P P P P P P P P 
6 | _ _ _ _ _ _ _ _ 
5 | _ _ _ _ _ _ _ _ 
4 | _ _ _ _ _ _ _ _ 
3 | _ _ _ _ _ _ _ _ 
2 | P P P P P P P P 
1 | R N B Q K B N R 
-------------------
  | A B C D E F G H 

It is white's turn to play.
AI's move: c2c3
Move written: c2c3
[32;1m[Game] [0mPlayer's error code: 0
[32;1m[Game] [0mChecking move validity...
[32;1m[Board] [0mInitializing board...
[32;1m[Board] [0mLoading history file `championship/lizzie-iii-shallowcyan/history.csv`...
[32;1m[Board] [0mLoaded 0 move(s).
[32;1m[Board] [0mLoading move file `championship/lizzie-iii-shallowcyan/move.csv`...
[32;1m[Board] [0mWhite player is playing c2 to c3.
[32;1m[Board] [0m
[32;1m[Board] [0m    a b c d e f g h 
[32;1m[Board] [0m  -------------------
[32;1m[Board] [0m8 ||[30;1mr[0m|[30;1mk[0m|[30;1mb[0m|[30;1mQ[0m|[30;1mK[0m|[30;1mb[0m|[30;1mk[0m|[30;1mr[0m|| 8
[32;1m[Board] [0m  -------------------
[32;1m[Board] [0m7 ||[30;1mp[0m|[30;1mp[0m|[30;1mp[0m|[30;1mp[0m|[30;1mp[0m|[30;1mp[0m|[30;1mp[0m|[30;1mp[0m|| 7
[32;1m[Board] [0m  -------------------
[32;1m[Board] [0m6 ||[7;1m [0m| |[7;1m [0m| |[7;1m [0m| |[7;1m [0m| || 6
[32;1m[Board] [0m  -------------------
[32;1m[Board] [0m5 || |[7;1m [0m| |[7;1m [0m| |[7;1m [0m| |[7;1m [0m|| 5
[32;1m[Board] [0m  -------------------
[32;1m[Board] [0m4 ||[7;1m [0m| |[7;1m [0m| |[7;1m [0m| |[7;1m [0m| || 4
[32;1m[Board] [0m  -------------------
[32;1m[Board] [0m3 || |[7;1m [0m|[0;1mp[0m|[7;1m [0m| |[7;1m [0m| |[7;1m [0m|| 3
[32;1m[Board] [0m  -------------------
[32;1m[Board] [0m2 ||[0;1mp[0m|[0;1mp[0m|[7;1m [0m|[0;1mp[0m|[0;1mp[0m|[0;1mp[0m|[0;1mp[0m|[0;1mp[0m|| 2
[32;1m[Board] [0m  -------------------
[32;1m[Board] [0m1 ||[0;1mr[0m|[0;1mk[0m|[0;1mb[0m|[0;1mQ[0m|[0;1mK[0m|[0;1mb[0m|[0;1mk[0m|[0;1mr[0m|| 1
[32;1m[Board] [0m  -------------------
[32;1m[Board] [0m    a b c d e f g h
[32;1m[Board] [0m
[32;1m[Referee] [0mThis is the turn of the Black player...
8 [100m ♖ [43m ♘ [100m ♗ [43m ♕ [100m ♔ [43m ♗ [100m ♘ [43m ♖ [40m
7 [43m ♙ [100m ♙ [43m ♙ [100m ♙ [43m ♙ [100m ♙ [43m ♙ [100m ♙ [40m
6 [100m   [43m   [100m   [43m   [100m   [43m   [100m   [43m   [40m
5 [43m   [100m   [43m   [100m   [43m   [100m   [43m   [100m   [40m
4 [100m   [43m   [100m   [43m   [100m   [43m   [100m   [43m   [40m
3 [43m   [100m   [43m ♟ [100m   [43m   [100m   [43m   [100m   [40m
2 [100m ♟ [43m ♟ [100m   [43m ♟ [100m ♟ [43m ♟ [100m ♟ [43m ♟ [40m
1 [43m ♜ [100m ♞ [43m ♝ [100m ♛ [43m ♚ [100m ♝ [43m ♞ [100m ♜ [40m
   a  b  c  d  e  f  g  h  
[32;1m[Game] [0mPlayer's error code: 0
[32;1m[Game] [0mChecking move validity...
[32;1m[Board] [0mInitializing board...
[32;1m[Board] [0mLoading history file `championship/lizzie-iii-shallowcyan/history.csv`...
[32;1m[Board] [0mLoaded 1 move(s).
[32;1m[Board] [0mLoading move file `championship/lizzie-iii-shallowcyan/move.csv`...
[32;1m[Board] [0mBlack player is playing b7 to b6.
[32;1m[Board] [0m
[32;1m[Board] [0m    a b c d e f g h 
[32;1m[Board] [0m  -------------------
[32;1m[Board] [0m8 ||[30;1mr[0m|[30;1mk[0m|[30;1mb[0m|[30;1mQ[0m|[30;1mK[0m|[30;1mb[0m|[30;1mk[0m|[30;1mr[0m|| 8
[32;1m[Board] [0m  -------------------
[32;1m[Board] [0m7 ||[30;1mp[0m|[7;1m [0m|[30;1mp[0m|[30;1mp[0m|[30;1mp[0m|[30;1mp[0m|[30;1mp[0m|[30;1mp[0m|| 7
[32;1m[Board] [0m  -------------------
[32;1m[Board] [0m6 ||[7;1m [0m|[30;1mp[0m|[7;1m [0m| |[7;1m [0m| |[7;1m [0m| || 6
[32;1m[Board] [0m  -------------------
[32;1m[Board] [0m5 || |[7;1m [0m| |[7;1m [0m| |[7;1m [0m| |[7;1m [0m|| 5
[32;1m[Board] [0m  -------------------
[32;1m[Board] [0m4 ||[7;1m [0m| |[7;1m [0m| |[7;1m [0m| |[7;1m [0m| || 4
[32;1m[Board] [0m  -------------------
[32;1m[Board] [0m3 || |[7;1m [0m|[0;1mp[0m|[7;1m [0m| |[7;1m [0m| |[7;1m [0m|| 3
[32;1m[Board] [0m  -------------------
[32;1m[Board] [0m2 ||[0;1mp[0m|[0;1mp[0m|[7;1m [0m|[0;1mp[0m|[0;1mp[0m|[0;1mp[0m|[0;1mp[0m|[0;1mp[0m|| 2
[32;1m[Board] [0m  -------------------
[32;1m[Board] [0m1 ||[0;1mr[0m|[0;1mk[0m|[0;1mb[0m|[0;1mQ[0m|[0;1mK[0m|[0;1mb[0m|[0;1mk[0m|[0;1mr[0m|| 1
[32;1m[Board] [0m  -------------------
[32;1m[Board] [0m    a b c d e f g h
[32;1m[Board] [0m
[32;1m[Referee] [0mThis is the turn of the White player...
Input file: championship/lizzie-iii-shallowcyan/history.csv
Output file: championship/lizzie-iii-shallowcyan/move.csv
Turn of: white
Succesful move
c2c3
8 | R N B Q K B N R 
7 | P P P P P P P P 
6 | _ _ _ _ _ _ _ _ 
5 | _ _ _ _ _ _ _ _ 
4 | _ _ _ _ _ _ _ _ 
3 | _ _ P _ _ _ _ _ 
2 | P P _ P P P P P 
1 | R N B Q K B N R 
-------------------
  | A B C D E F G H 

Turn of: black
Succesful move
b7b6
8 | R N B Q K B N R 
7 | P _ P P P P P P 
6 | _ P _ _ _ _ _ _ 
5 | _ _ _ _ _ _ _ _ 
4 | _ _ _ _ _ _ _ _ 
3 | _ _ P _ _ _ _ _ 
2 | P P _ P P P P P 
1 | R N B Q K B N R 
-------------------
  | A B C D E F G H 

We are playing as White
Move history:
c2c3
b7b6
8 | R N B Q K B N R 
7 | P _ P P P P P P 
6 | _ P _ _ _ _ _ _ 
5 | _ _ _ _ _ _ _ _ 
4 | _ _ _ _ _ _ _ _ 
3 | _ _ P _ _ _ _ _ 
2 | P P _ P P P P P 
1 | R N B Q K B N R 
-------------------
  | A B C D E F G H 

It is white's turn to play.
AI's move: a2a4
Move written: a2a4
[32;1m[Game] [0mPlayer's error code: 0
[32;1m[Game] [0mChecking move validity...
[32;1m[Board] [0mInitializing board...
[32;1m[Board] [0mLoading history file `championship/lizzie-iii-shallowcyan/history.csv`...
[32;1m[Board] [0mLoaded 2 move(s).
[32;1m[Board] [0mLoading move file `championship/lizzie-iii-shallowcyan/move.csv`...
[32;1m[Board] [0mWhite player is playing a2 to a4.
[32;1m[Board] [0m
[32;1m[Board] [0m    a b c d e f g h 
[32;1m[Board] [0m  -------------------
[32;1m[Board] [0m8 ||[30;1mr[0m|[30;1mk[0m|[30;1mb[0m|[30;1mQ[0m|[30;1mK[0m|[30;1mb[0m|[30;1mk[0m|[30;1mr[0m|| 8
[32;1m[Board] [0m  -------------------
[32;1m[Board] [0m7 ||[30;1mp[0m|[7;1m [0m|[30;1mp[0m|[30;1mp[0m|[30;1mp[0m|[30;1mp[0m|[30;1mp[0m|[30;1mp[0m|| 7
[32;1m[Board] [0m  -------------------
[32;1m[Board] [0m6 ||[7;1m [0m|[30;1mp[0m|[7;1m [0m| |[7;1m [0m| |[7;1m [0m| || 6
[32;1m[Board] [0m  -------------------
[32;1m[Board] [0m5 || |[7;1m [0m| |[7;1m [0m| |[7;1m [0m| |[7;1m [0m|| 5
[32;1m[Board] [0m  -------------------
[32;1m[Board] [0m4 ||[0;1mp[0m| |[7;1m [0m| |[7;1m [0m| |[7;1m [0m| || 4
[32;1m[Board] [0m  -------------------
[32;1m[Board] [0m3 || |[7;1m [0m|[0;1mp[0m|[7;1m [0m| |[7;1m [0m| |[7;1m [0m|| 3
[32;1m[Board] [0m  -------------------
[32;1m[Board] [0m2 ||[7;1m [0m|[0;1mp[0m|[7;1m [0m|[0;1mp[0m|[0;1mp[0m|[0;1mp[0m|[0;1mp[0m|[0;1mp[0m|| 2
[32;1m[Board] [0m  -------------------
[32;1m[Board] [0m1 ||[0;1mr[0m|[0;1mk[0m|[0;1mb[0m|[0;1mQ[0m|[0;1mK[0m|[0;1mb[0m|[0;1mk[0m|[0;1mr[0m|| 1
[32;1m[Board] [0m  -------------------
[32;1m[Board] [0m    a b c d e f g h
[32;1m[Board] [0m
[32;1m[Referee] [0mThis is the turn of the Black player...
8 [100m ♖ [43m ♘ [100m ♗ [43m ♕ [100m ♔ [43m ♗ [100m ♘ [43m ♖ [40m
7 [43m ♙ [100m   [43m ♙ [100m ♙ [43m ♙ [100m ♙ [43m ♙ [100m ♙ [40m
6 [100m   [43m ♙ [100m   [43m   [100m   [43m   [100m   [43m   [40m
5 [43m   [100m   [43m   [100m   [43m   [100m   [43m   [100m   [40m
4 [100m ♟ [43m   [100m   [43m   [100m   [43m   [100m   [43m   [40m
3 [43m   [100m   [43m ♟ [100m   [43m   [100m   [43m   [100m   [40m
2 [100m   [43m ♟ [100m   [43m ♟ [100m ♟ [43m ♟ [100m ♟ [43m ♟ [40m
1 [43m ♜ [100m ♞ [43m ♝ [100m ♛ [43m ♚ [100m ♝ [43m ♞ [100m ♜ [40m
   a  b  c  d  e  f  g  h  
[32;1m[Game] [0mPlayer's error code: 0
[32;1m[Game] [0mChecking move validity...
[32;1m[Board] [0mInitializing board...
[32;1m[Board] [0mLoading history file `championship/lizzie-iii-shallowcyan/history.csv`...
[32;1m[Board] [0mLoaded 3 move(s).
[32;1m[Board] [0mLoading move file `championship/lizzie-iii-shallowcyan/move.csv`...
[32;1m[Board] [0mBlack player is playing g8 to f6.
[32;1m[Board] [0m
[32;1m[Board] [0m    a b c d e f g h 
[32;1m[Board] [0m  -------------------
[32;1m[Board] [0m8 ||[30;1mr[0m|[30;1mk[0m|[30;1mb[0m|[30;1mQ[0m|[30;1mK[0m|[30;1mb[0m|[7;1m [0m|[30;1mr[0m|| 8
[32;1m[Board] [0m  -------------------
[32;1m[Board] [0m7 ||[30;1mp[0m|[7;1m [0m|[30;1mp[0m|[30;1mp[0m|[30;1mp[0m|[30;1mp[0m|[30;1mp[0m|[30;1mp[0m|| 7
[32;1m[Board] [0m  -------------------
[32;1m[Board] [0m6 ||[7;1m [0m|[30;1mp[0m|[7;1m [0m| |[7;1m [0m|[30;1mk[0m|[7;1m [0m| || 6
[32;1m[Board] [0m  -------------------
[32;1m[Board] [0m5 || |[7;1m [0m| |[7;1m [0m| |[7;1m [0m| |[7;1m [0m|| 5
[32;1m[Board] [0m  -------------------
[32;1m[Board] [0m4 ||[0;1mp[0m| |[7;1m [0m| |[7;1m [0m| |[7;1m [0m| || 4
[32;1m[Board] [0m  -------------------
[32;1m[Board] [0m3 || |[7;1m [0m|[0;1mp[0m|[7;1m [0m| |[7;1m [0m| |[7;1m [0m|| 3
[32;1m[Board] [0m  -------------------
[32;1m[Board] [0m2 ||[7;1m [0m|[0;1mp[0m|[7;1m [0m|[0;1mp[0m|[0;1mp[0m|[0;1mp[0m|[0;1mp[0m|[0;1mp[0m|| 2
[32;1m[Board] [0m  -------------------
[32;1m[Board] [0m1 ||[0;1mr[0m|[0;1mk[0m|[0;1mb[0m|[0;1mQ[0m|[0;1mK[0m|[0;1mb[0m|[0;1mk[0m|[0;1mr[0m|| 1
[32;1m[Board] [0m  -------------------
[32;1m[Board] [0m    a b c d e f g h
[32;1m[Board] [0m
[32;1m[Referee] [0mThis is the turn of the White player...
Input file: championship/lizzie-iii-shallowcyan/history.csv
Output file: championship/lizzie-iii-shallowcyan/move.csv
Turn of: white
Succesful move
c2c3
8 | R N B Q K B N R 
7 | P P P P P P P P 
6 | _ _ _ _ _ _ _ _ 
5 | _ _ _ _ _ _ _ _ 
4 | _ _ _ _ _ _ _ _ 
3 | _ _ P _ _ _ _ _ 
2 | P P _ P P P P P 
1 | R N B Q K B N R 
-------------------
  | A B C D E F G H 

Turn of: black
Succesful move
b7b6
8 | R N B Q K B N R 
7 | P _ P P P P P P 
6 | _ P _ _ _ _ _ _ 
5 | _ _ _ _ _ _ _ _ 
4 | _ _ _ _ _ _ _ _ 
3 | _ _ P _ _ _ _ _ 
2 | P P _ P P P P P 
1 | R N B Q K B N R 
-------------------
  | A B C D E F G H 

Turn of: white
Succesful move
a2a4
8 | R N B Q K B N R 
7 | P _ P P P P P P 
6 | _ P _ _ _ _ _ _ 
5 | _ _ _ _ _ _ _ _ 
4 | P _ _ _ _ _ _ _ 
3 | _ _ P _ _ _ _ _ 
2 | _ P _ P P P P P 
1 | R N B Q K B N R 
-------------------
  | A B C D E F G H 

Turn of: black
Succesful move
g8f6
8 | R N B Q K B _ R 
7 | P _ P P P P P P 
6 | _ P _ _ _ N _ _ 
5 | _ _ _ _ _ _ _ _ 
4 | P _ _ _ _ _ _ _ 
3 | _ _ P _ _ _ _ _ 
2 | _ P _ P P P P P 
1 | R N B Q K B N R 
-------------------
  | A B C D E F G H 

We are playing as White
Move history:
c2c3
b7b6
a2a4
g8f6
8 | R N B Q K B _ R 
7 | P _ P P P P P P 
6 | _ P _ _ _ N _ _ 
5 | _ _ _ _ _ _ _ _ 
4 | P _ _ _ _ _ _ _ 
3 | _ _ P _ _ _ _ _ 
2 | _ P _ P P P P P 
1 | R N B Q K B N R 
-------------------
  | A B C D E F G H 

It is white's turn to play.
AI's move: d1b3
Move written: d1b3
[32;1m[Game] [0mPlayer's error code: 0
[32;1m[Game] [0mChecking move validity...
[32;1m[Board] [0mInitializing board...
[32;1m[Board] [0mLoading history file `championship/lizzie-iii-shallowcyan/history.csv`...
[32;1m[Board] [0mLoaded 4 move(s).
[32;1m[Board] [0mLoading move file `championship/lizzie-iii-shallowcyan/move.csv`...
[32;1m[Board] [0mWhite player is playing d1 to b3.
[32;1m[Board] [0m
[32;1m[Board] [0m    a b c d e f g h 
[32;1m[Board] [0m  -------------------
[32;1m[Board] [0m8 ||[30;1mr[0m|[30;1mk[0m|[30;1mb[0m|[30;1mQ[0m|[30;1mK[0m|[30;1mb[0m|[7;1m [0m|[30;1mr[0m|| 8
[32;1m[Board] [0m  -------------------
[32;1m[Board] [0m7 ||[30;1mp[0m|[7;1m [0m|[30;1mp[0m|[30;1mp[0m|[30;1mp[0m|[30;1mp[0m|[30;1mp[0m|[30;1mp[0m|| 7
[32;1m[Board] [0m  -------------------
[32;1m[Board] [0m6 ||[7;1m [0m|[30;1mp[0m|[7;1m [0m| |[7;1m [0m|[30;1mk[0m|[7;1m [0m| || 6
[32;1m[Board] [0m  -------------------
[32;1m[Board] [0m5 || |[7;1m [0m| |[7;1m [0m| |[7;1m [0m| |[7;1m [0m|| 5
[32;1m[Board] [0m  -------------------
[32;1m[Board] [0m4 ||[0;1mp[0m| |[7;1m [0m| |[7;1m [0m| |[7;1m [0m| || 4
[32;1m[Board] [0m  -------------------
[32;1m[Board] [0m3 || |[0;1mQ[0m|[0;1mp[0m|[7;1m [0m| |[7;1m [0m| |[7;1m [0m|| 3
[32;1m[Board] [0m  -------------------
[32;1m[Board] [0m2 ||[7;1m [0m|[0;1mp[0m|[7;1m [0m|[0;1mp[0m|[0;1mp[0m|[0;1mp[0m|[0;1mp[0m|[0;1mp[0m|| 2
[32;1m[Board] [0m  -------------------
[32;1m[Board] [0m1 ||[0;1mr[0m|[0;1mk[0m|[0;1mb[0m|[7;1m [0m|[0;1mK[0m|[0;1mb[0m|[0;1mk[0m|[0;1mr[0m|| 1
[32;1m[Board] [0m  -------------------
[32;1m[Board] [0m    a b c d e f g h
[32;1m[Board] [0m
[32;1m[Referee] [0mThis is the turn of the Black player...
8 [100m ♖ [43m ♘ [100m ♗ [43m ♕ [100m ♔ [43m ♗ [100m   [43m ♖ [40m
7 [43m ♙ [100m   [43m ♙ [100m ♙ [43m ♙ [100m ♙ [43m ♙ [100m ♙ [40m
6 [100m   [43m ♙ [100m   [43m   [100m   [43m ♘ [100m   [43m   [40m
5 [43m   [100m   [43m   [100m   [43m   [100m   [43m   [100m   [40m
4 [100m ♟ [43m   [100m   [43m   [100m   [43m   [100m   [43m   [40m
3 [43m   [100m ♛ [43m ♟ [100m   [43m   [100m   [43m   [100m   [40m
2 [100m   [43m ♟ [100m   [43m ♟ [100m ♟ [43m ♟ [100m ♟ [43m ♟ [40m
1 [43m ♜ [100m ♞ [43m ♝ [100m   [43m ♚ [100m ♝ [43m ♞ [100m ♜ [40m
   a  b  c  d  e  f  g  h  
[32;1m[Game] [0mPlayer's error code: 0
[32;1m[Game] [0mChecking move validity...
[32;1m[Board] [0mInitializing board...
[32;1m[Board] [0mLoading history file `championship/lizzie-iii-shallowcyan/history.csv`...
[32;1m[Board] [0mLoaded 5 move(s).
[32;1m[Board] [0mLoading move file `championship/lizzie-iii-shallowcyan/move.csv`...
[32;1m[Board] [0mBlack player is playing a7 to a5.
[32;1m[Board] [0m
[32;1m[Board] [0m    a b c d e f g h 
[32;1m[Board] [0m  -------------------
[32;1m[Board] [0m8 ||[30;1mr[0m|[30;1mk[0m|[30;1mb[0m|[30;1mQ[0m|[30;1mK[0m|[30;1mb[0m|[7;1m [0m|[30;1mr[0m|| 8
[32;1m[Board] [0m  -------------------
[32;1m[Board] [0m7 || |[7;1m [0m|[30;1mp[0m|[30;1mp[0m|[30;1mp[0m|[30;1mp[0m|[30;1mp[0m|[30;1mp[0m|| 7
[32;1m[Board] [0m  -------------------
[32;1m[Board] [0m6 ||[7;1m [0m|[30;1mp[0m|[7;1m [0m| |[7;1m [0m|[30;1mk[0m|[7;1m [0m| || 6
[32;1m[Board] [0m  -------------------
[32;1m[Board] [0m5 ||[30;1mp[0m|[7;1m [0m| |[7;1m [0m| |[7;1m [0m| |[7;1m [0m|| 5
[32;1m[Board] [0m  -------------------
[32;1m[Board] [0m4 ||[0;1mp[0m| |[7;1m [0m| |[7;1m [0m| |[7;1m [0m| || 4
[32;1m[Board] [0m  -------------------
[32;1m[Board] [0m3 || |[0;1mQ[0m|[0;1mp[0m|[7;1m [0m| |[7;1m [0m| |[7;1m [0m|| 3
[32;1m[Board] [0m  -------------------
[32;1m[Board] [0m2 ||[7;1m [0m|[0;1mp[0m|[7;1m [0m|[0;1mp[0m|[0;1mp[0m|[0;1mp[0m|[0;1mp[0m|[0;1mp[0m|| 2
[32;1m[Board] [0m  -------------------
[32;1m[Board] [0m1 ||[0;1mr[0m|[0;1mk[0m|[0;1mb[0m|[7;1m [0m|[0;1mK[0m|[0;1mb[0m|[0;1mk[0m|[0;1mr[0m|| 1
[32;1m[Board] [0m  -------------------
[32;1m[Board] [0m    a b c d e f g h
[32;1m[Board] [0m
[32;1m[Referee] [0mThis is the turn of the White player...
Input file: championship/lizzie-iii-shallowcyan/history.csv
Output file: championship/lizzie-iii-shallowcyan/move.csv
Turn of: white
Succesful move
c2c3
8 | R N B Q K B N R 
7 | P P P P P P P P 
6 | _ _ _ _ _ _ _ _ 
5 | _ _ _ _ _ _ _ _ 
4 | _ _ _ _ _ _ _ _ 
3 | _ _ P _ _ _ _ _ 
2 | P P _ P P P P P 
1 | R N B Q K B N R 
-------------------
  | A B C D E F G H 

Turn of: black
Succesful move
b7b6
8 | R N B Q K B N R 
7 | P _ P P P P P P 
6 | _ P _ _ _ _ _ _ 
5 | _ _ _ _ _ _ _ _ 
4 | _ _ _ _ _ _ _ _ 
3 | _ _ P _ _ _ _ _ 
2 | P P _ P P P P P 
1 | R N B Q K B N R 
-------------------
  | A B C D E F G H 

Turn of: white
Succesful move
a2a4
8 | R N B Q K B N R 
7 | P _ P P P P P P 
6 | _ P _ _ _ _ _ _ 
5 | _ _ _ _ _ _ _ _ 
4 | P _ _ _ _ _ _ _ 
3 | _ _ P _ _ _ _ _ 
2 | _ P _ P P P P P 
1 | R N B Q K B N R 
-------------------
  | A B C D E F G H 

Turn of: black
Succesful move
g8f6
8 | R N B Q K B _ R 
7 | P _ P P P P P P 
6 | _ P _ _ _ N _ _ 
5 | _ _ _ _ _ _ _ _ 
4 | P _ _ _ _ _ _ _ 
3 | _ _ P _ _ _ _ _ 
2 | _ P _ P P P P P 
1 | R N B Q K B N R 
-------------------
  | A B C D E F G H 

Turn of: white
Succesful move
d1b3
8 | R N B Q K B _ R 
7 | P _ P P P P P P 
6 | _ P _ _ _ N _ _ 
5 | _ _ _ _ _ _ _ _ 
4 | P _ _ _ _ _ _ _ 
3 | _ Q P _ _ _ _ _ 
2 | _ P _ P P P P P 
1 | R N B _ K B N R 
-------------------
  | A B C D E F G H 

Turn of: black
Succesful move
a7a5
8 | R N B Q K B _ R 
7 | _ _ P P P P P P 
6 | _ P _ _ _ N _ _ 
5 | P _ _ _ _ _ _ _ 
4 | P _ _ _ _ _ _ _ 
3 | _ Q P _ _ _ _ _ 
2 | _ P _ P P P P P 
1 | R N B _ K B N R 
-------------------
  | A B C D E F G H 

We are playing as White
Move history:
c2c3
b7b6
a2a4
g8f6
d1b3
a7a5
8 | R N B Q K B _ R 
7 | _ _ P P P P P P 
6 | _ P _ _ _ N _ _ 
5 | P _ _ _ _ _ _ _ 
4 | P _ _ _ _ _ _ _ 
3 | _ Q P _ _ _ _ _ 
2 | _ P _ P P P P P 
1 | R N B _ K B N R 
-------------------
  | A B C D E F G H 

It is white's turn to play.
AI's move: f2f3
Move written: f2f3
[32;1m[Game] [0mPlayer's error code: 0
[32;1m[Game] [0mChecking move validity...
[32;1m[Board] [0mInitializing board...
[32;1m[Board] [0mLoading history file `championship/lizzie-iii-shallowcyan/history.csv`...
[32;1m[Board] [0mLoaded 6 move(s).
[32;1m[Board] [0mLoading move file `championship/lizzie-iii-shallowcyan/move.csv`...
[32;1m[Board] [0mWhite player is playing f2 to f3.
[32;1m[Board] [0m
[32;1m[Board] [0m    a b c d e f g h 
[32;1m[Board] [0m  -------------------
[32;1m[Board] [0m8 ||[30;1mr[0m|[30;1mk[0m|[30;1mb[0m|[30;1mQ[0m|[30;1mK[0m|[30;1mb[0m|[7;1m [0m|[30;1mr[0m|| 8
[32;1m[Board] [0m  -------------------
[32;1m[Board] [0m7 || |[7;1m [0m|[30;1mp[0m|[30;1mp[0m|[30;1mp[0m|[30;1mp[0m|[30;1mp[0m|[30;1mp[0m|| 7
[32;1m[Board] [0m  -------------------
[32;1m[Board] [0m6 ||[7;1m [0m|[30;1mp[0m|[7;1m [0m| |[7;1m [0m|[30;1mk[0m|[7;1m [0m| || 6
[32;1m[Board] [0m  -------------------
[32;1m[Board] [0m5 ||[30;1mp[0m|[7;1m [0m| |[7;1m [0m| |[7;1m [0m| |[7;1m [0m|| 5
[32;1m[Board] [0m  -------------------
[32;1m[Board] [0m4 ||[0;1mp[0m| |[7;1m [0m| |[7;1m [0m| |[7;1m [0m| || 4
[32;1m[Board] [0m  -------------------
[32;1m[Board] [0m3 || |[0;1mQ[0m|[0;1mp[0m|[7;1m [0m| |[0;1mp[0m| |[7;1m [0m|| 3
[32;1m[Board] [0m  -------------------
[32;1m[Board] [0m2 ||[7;1m [0m|[0;1mp[0m|[7;1m [0m|[0;1mp[0m|[0;1mp[0m| |[0;1mp[0m|[0;1mp[0m|| 2
[32;1m[Board] [0m  -------------------
[32;1m[Board] [0m1 ||[0;1mr[0m|[0;1mk[0m|[0;1mb[0m|[7;1m [0m|[0;1mK[0m|[0;1mb[0m|[0;1mk[0m|[0;1mr[0m|| 1
[32;1m[Board] [0m  -------------------
[32;1m[Board] [0m    a b c d e f g h
[32;1m[Board] [0m
[32;1m[Referee] [0mThis is the turn of the Black player...
8 [100m ♖ [43m ♘ [100m ♗ [43m ♕ [100m ♔ [43m ♗ [100m   [43m ♖ [40m
7 [43m   [100m   [43m ♙ [100m ♙ [43m ♙ [100m ♙ [43m ♙ [100m ♙ [40m
6 [100m   [43m ♙ [100m   [43m   [100m   [43m ♘ [100m   [43m   [40m
5 [43m ♙ [100m   [43m   [100m   [43m   [100m   [43m   [100m   [40m
4 [100m ♟ [43m   [100m   [43m   [100m   [43m   [100m   [43m   [40m
3 [43m   [100m ♛ [43m ♟ [100m   [43m   [100m ♟ [43m   [100m   [40m
2 [100m   [43m ♟ [100m   [43m ♟ [100m ♟ [43m   [100m ♟ [43m ♟ [40m
1 [43m ♜ [100m ♞ [43m ♝ [100m   [43m ♚ [100m ♝ [43m ♞ [100m ♜ [40m
   a  b  c  d  e  f  g  h  
[32;1m[Game] [0mPlayer's error code: 0
[32;1m[Game] [0mChecking move validity...
[32;1m[Board] [0mInitializing board...
[32;1m[Board] [0mLoading history file `championship/lizzie-iii-shallowcyan/history.csv`...
[32;1m[Board] [0mLoaded 7 move(s).
[32;1m[Board] [0mLoading move file `championship/lizzie-iii-shallowcyan/move.csv`...
[32;1m[Board] [0mBlack player is playing c7 to c5.
[32;1m[Board] [0m
[32;1m[Board] [0m    a b c d e f g h 
[32;1m[Board] [0m  -------------------
[32;1m[Board] [0m8 ||[30;1mr[0m|[30;1mk[0m|[30;1mb[0m|[30;1mQ[0m|[30;1mK[0m|[30;1mb[0m|[7;1m [0m|[30;1mr[0m|| 8
[32;1m[Board] [0m  -------------------
[32;1m[Board] [0m7 || |[7;1m [0m| |[30;1mp[0m|[30;1mp[0m|[30;1mp[0m|[30;1mp[0m|[30;1mp[0m|| 7
[32;1m[Board] [0m  -------------------
[32;1m[Board] [0m6 ||[7;1m [0m|[30;1mp[0m|[7;1m [0m| |[7;1m [0m|[30;1mk[0m|[7;1m [0m| || 6
[32;1m[Board] [0m  -------------------
[32;1m[Board] [0m5 ||[30;1mp[0m|[7;1m [0m|[30;1mp[0m|[7;1m [0m| |[7;1m [0m| |[7;1m [0m|| 5
[32;1m[Board] [0m  -------------------
[32;1m[Board] [0m4 ||[0;1mp[0m| |[7;1m [0m| |[7;1m [0m| |[7;1m [0m| || 4
[32;1m[Board] [0m  -------------------
[32;1m[Board] [0m3 || |[0;1mQ[0m|[0;1mp[0m|[7;1m [0m| |[0;1mp[0m| |[7;1m [0m|| 3
[32;1m[Board] [0m  -------------------
[32;1m[Board] [0m2 ||[7;1m [0m|[0;1mp[0m|[7;1m [0m|[0;1mp[0m|[0;1mp[0m| |[0;1mp[0m|[0;1mp[0m|| 2
[32;1m[Board] [0m  -------------------
[32;1m[Board] [0m1 ||[0;1mr[0m|[0;1mk[0m|[0;1mb[0m|[7;1m [0m|[0;1mK[0m|[0;1mb[0m|[0;1mk[0m|[0;1mr[0m|| 1
[32;1m[Board] [0m  -------------------
[32;1m[Board] [0m    a b c d e f g h
[32;1m[Board] [0m
[32;1m[Referee] [0mThis is the turn of the White player...
Input file: championship/lizzie-iii-shallowcyan/history.csv
Output file: championship/lizzie-iii-shallowcyan/move.csv
Turn of: white
Succesful move
c2c3
8 | R N B Q K B N R 
7 | P P P P P P P P 
6 | _ _ _ _ _ _ _ _ 
5 | _ _ _ _ _ _ _ _ 
4 | _ _ _ _ _ _ _ _ 
3 | _ _ P _ _ _ _ _ 
2 | P P _ P P P P P 
1 | R N B Q K B N R 
-------------------
  | A B C D E F G H 

Turn of: black
Succesful move
b7b6
8 | R N B Q K B N R 
7 | P _ P P P P P P 
6 | _ P _ _ _ _ _ _ 
5 | _ _ _ _ _ _ _ _ 
4 | _ _ _ _ _ _ _ _ 
3 | _ _ P _ _ _ _ _ 
2 | P P _ P P P P P 
1 | R N B Q K B N R 
-------------------
  | A B C D E F G H 

Turn of: white
Succesful move
a2a4
8 | R N B Q K B N R 
7 | P _ P P P P P P 
6 | _ P _ _ _ _ _ _ 
5 | _ _ _ _ _ _ _ _ 
4 | P _ _ _ _ _ _ _ 
3 | _ _ P _ _ _ _ _ 
2 | _ P _ P P P P P 
1 | R N B Q K B N R 
-------------------
  | A B C D E F G H 

Turn of: black
Succesful move
g8f6
8 | R N B Q K B _ R 
7 | P _ P P P P P P 
6 | _ P _ _ _ N _ _ 
5 | _ _ _ _ _ _ _ _ 
4 | P _ _ _ _ _ _ _ 
3 | _ _ P _ _ _ _ _ 
2 | _ P _ P P P P P 
1 | R N B Q K B N R 
-------------------
  | A B C D E F G H 

Turn of: white
Succesful move
d1b3
8 | R N B Q K B _ R 
7 | P _ P P P P P P 
6 | _ P _ _ _ N _ _ 
5 | _ _ _ _ _ _ _ _ 
4 | P _ _ _ _ _ _ _ 
3 | _ Q P _ _ _ _ _ 
2 | _ P _ P P P P P 
1 | R N B _ K B N R 
-------------------
  | A B C D E F G H 

Turn of: black
Succesful move
a7a5
8 | R N B Q K B _ R 
7 | _ _ P P P P P P 
6 | _ P _ _ _ N _ _ 
5 | P _ _ _ _ _ _ _ 
4 | P _ _ _ _ _ _ _ 
3 | _ Q P _ _ _ _ _ 
2 | _ P _ P P P P P 
1 | R N B _ K B N R 
-------------------
  | A B C D E F G H 

Turn of: white
Succesful move
f2f3
8 | R N B Q K B _ R 
7 | _ _ P P P P P P 
6 | _ P _ _ _ N _ _ 
5 | P _ _ _ _ _ _ _ 
4 | P _ _ _ _ _ _ _ 
3 | _ Q P _ _ P _ _ 
2 | _ P _ P P _ P P 
1 | R N B _ K B N R 
-------------------
  | A B C D E F G H 

Turn of: black
Succesful move
c7c5
8 | R N B Q K B _ R 
7 | _ _ _ P P P P P 
6 | _ P _ _ _ N _ _ 
5 | P _ P _ _ _ _ _ 
4 | P _ _ _ _ _ _ _ 
3 | _ Q P _ _ P _ _ 
2 | _ P _ P P _ P P 
1 | R N B _ K B N R 
-------------------
  | A B C D E F G H 

We are playing as White
Move history:
c2c3
b7b6
a2a4
g8f6
d1b3
a7a5
f2f3
c7c5
8 | R N B Q K B _ R 
7 | _ _ _ P P P P P 
6 | _ P _ _ _ N _ _ 
5 | P _ P _ _ _ _ _ 
4 | P _ _ _ _ _ _ _ 
3 | _ Q P _ _ P _ _ 
2 | _ P _ P P _ P P 
1 | R N B _ K B N R 
-------------------
  | A B C D E F G H 

It is white's turn to play.
AI's move: b3d1
Move written: b3d1
[32;1m[Game] [0mPlayer's error code: 0
[32;1m[Game] [0mChecking move validity...
[32;1m[Board] [0mInitializing board...
[32;1m[Board] [0mLoading history file `championship/lizzie-iii-shallowcyan/history.csv`...
[32;1m[Board] [0mLoaded 8 move(s).
[32;1m[Board] [0mLoading move file `championship/lizzie-iii-shallowcyan/move.csv`...
[32;1m[Board] [0mWhite player is playing b3 to d1.
[32;1m[Board] [0m
[32;1m[Board] [0m    a b c d e f g h 
[32;1m[Board] [0m  -------------------
[32;1m[Board] [0m8 ||[30;1mr[0m|[30;1mk[0m|[30;1mb[0m|[30;1mQ[0m|[30;1mK[0m|[30;1mb[0m|[7;1m [0m|[30;1mr[0m|| 8
[32;1m[Board] [0m  -------------------
[32;1m[Board] [0m7 || |[7;1m [0m| |[30;1mp[0m|[30;1mp[0m|[30;1mp[0m|[30;1mp[0m|[30;1mp[0m|| 7
[32;1m[Board] [0m  -------------------
[32;1m[Board] [0m6 ||[7;1m [0m|[30;1mp[0m|[7;1m [0m| |[7;1m [0m|[30;1mk[0m|[7;1m [0m| || 6
[32;1m[Board] [0m  -------------------
[32;1m[Board] [0m5 ||[30;1mp[0m|[7;1m [0m|[30;1mp[0m|[7;1m [0m| |[7;1m [0m| |[7;1m [0m|| 5
[32;1m[Board] [0m  -------------------
[32;1m[Board] [0m4 ||[0;1mp[0m| |[7;1m [0m| |[7;1m [0m| |[7;1m [0m| || 4
[32;1m[Board] [0m  -------------------
[32;1m[Board] [0m3 || |[7;1m [0m|[0;1mp[0m|[7;1m [0m| |[0;1mp[0m| |[7;1m [0m|| 3
[32;1m[Board] [0m  -------------------
[32;1m[Board] [0m2 ||[7;1m [0m|[0;1mp[0m|[7;1m [0m|[0;1mp[0m|[0;1mp[0m| |[0;1mp[0m|[0;1mp[0m|| 2
[32;1m[Board] [0m  -------------------
[32;1m[Board] [0m1 ||[0;1mr[0m|[0;1mk[0m|[0;1mb[0m|[0;1mQ[0m|[0;1mK[0m|[0;1mb[0m|[0;1mk[0m|[0;1mr[0m|| 1
[32;1m[Board] [0m  -------------------
[32;1m[Board] [0m    a b c d e f g h
[32;1m[Board] [0m
[32;1m[Referee] [0mThis is the turn of the Black player...
8 [100m ♖ [43m ♘ [100m ♗ [43m ♕ [100m ♔ [43m ♗ [100m   [43m ♖ [40m
7 [43m   [100m   [43m   [100m ♙ [43m ♙ [100m ♙ [43m ♙ [100m ♙ [40m
6 [100m   [43m ♙ [100m   [43m   [100m   [43m ♘ [100m   [43m   [40m
5 [43m ♙ [100m   [43m ♙ [100m   [43m   [100m   [43m   [100m   [40m
4 [100m ♟ [43m   [100m   [43m   [100m   [43m   [100m   [43m   [40m
3 [43m   [100m   [43m ♟ [100m   [43m   [100m ♟ [43m   [100m   [40m
2 [100m   [43m ♟ [100m   [43m ♟ [100m ♟ [43m   [100m ♟ [43m ♟ [40m
1 [43m ♜ [100m ♞ [43m ♝ [100m ♛ [43m ♚ [100m ♝ [43m ♞ [100m ♜ [40m
   a  b  c  d  e  f  g  h  
[32;1m[Game] [0mPlayer's error code: 0
[32;1m[Game] [0mChecking move validity...
[32;1m[Board] [0mInitializing board...
[32;1m[Board] [0mLoading history file `championship/lizzie-iii-shallowcyan/history.csv`...
[32;1m[Board] [0mLoaded 9 move(s).
[32;1m[Board] [0mLoading move file `championship/lizzie-iii-shallowcyan/move.csv`...
[32;1m[Board] [0mBlack player is playing d7 to d6.
[32;1m[Board] [0m
[32;1m[Board] [0m    a b c d e f g h 
[32;1m[Board] [0m  -------------------
[32;1m[Board] [0m8 ||[30;1mr[0m|[30;1mk[0m|[30;1mb[0m|[30;1mQ[0m|[30;1mK[0m|[30;1mb[0m|[7;1m [0m|[30;1mr[0m|| 8
[32;1m[Board] [0m  -------------------
[32;1m[Board] [0m7 || |[7;1m [0m| |[7;1m [0m|[30;1mp[0m|[30;1mp[0m|[30;1mp[0m|[30;1mp[0m|| 7
[32;1m[Board] [0m  -------------------
[32;1m[Board] [0m6 ||[7;1m [0m|[30;1mp[0m|[7;1m [0m|[30;1mp[0m|[7;1m [0m|[30;1mk[0m|[7;1m [0m| || 6
[32;1m[Board] [0m  -------------------
[32;1m[Board] [0m5 ||[30;1mp[0m|[7;1m [0m|[30;1mp[0m|[7;1m [0m| |[7;1m [0m| |[7;1m [0m|| 5
[32;1m[Board] [0m  -------------------
[32;1m[Board] [0m4 ||[0;1mp[0m| |[7;1m [0m| |[7;1m [0m| |[7;1m [0m| || 4
[32;1m[Board] [0m  -------------------
[32;1m[Board] [0m3 || |[7;1m [0m|[0;1mp[0m|[7;1m [0m| |[0;1mp[0m| |[7;1m [0m|| 3
[32;1m[Board] [0m  -------------------
[32;1m[Board] [0m2 ||[7;1m [0m|[0;1mp[0m|[7;1m [0m|[0;1mp[0m|[0;1mp[0m| |[0;1mp[0m|[0;1mp[0m|| 2
[32;1m[Board] [0m  -------------------
[32;1m[Board] [0m1 ||[0;1mr[0m|[0;1mk[0m|[0;1mb[0m|[0;1mQ[0m|[0;1mK[0m|[0;1mb[0m|[0;1mk[0m|[0;1mr[0m|| 1
[32;1m[Board] [0m  -------------------
[32;1m[Board] [0m    a b c d e f g h
[32;1m[Board] [0m
[32;1m[Referee] [0mThis is the turn of the White player...
Input file: championship/lizzie-iii-shallowcyan/history.csv
Output file: championship/lizzie-iii-shallowcyan/move.csv
Turn of: white
Succesful move
c2c3
8 | R N B Q K B N R 
7 | P P P P P P P P 
6 | _ _ _ _ _ _ _ _ 
5 | _ _ _ _ _ _ _ _ 
4 | _ _ _ _ _ _ _ _ 
3 | _ _ P _ _ _ _ _ 
2 | P P _ P P P P P 
1 | R N B Q K B N R 
-------------------
  | A B C D E F G H 

Turn of: black
Succesful move
b7b6
8 | R N B Q K B N R 
7 | P _ P P P P P P 
6 | _ P _ _ _ _ _ _ 
5 | _ _ _ _ _ _ _ _ 
4 | _ _ _ _ _ _ _ _ 
3 | _ _ P _ _ _ _ _ 
2 | P P _ P P P P P 
1 | R N B Q K B N R 
-------------------
  | A B C D E F G H 

Turn of: white
Succesful move
a2a4
8 | R N B Q K B N R 
7 | P _ P P P P P P 
6 | _ P _ _ _ _ _ _ 
5 | _ _ _ _ _ _ _ _ 
4 | P _ _ _ _ _ _ _ 
3 | _ _ P _ _ _ _ _ 
2 | _ P _ P P P P P 
1 | R N B Q K B N R 
-------------------
  | A B C D E F G H 

Turn of: black
Succesful move
g8f6
8 | R N B Q K B _ R 
7 | P _ P P P P P P 
6 | _ P _ _ _ N _ _ 
5 | _ _ _ _ _ _ _ _ 
4 | P _ _ _ _ _ _ _ 
3 | _ _ P _ _ _ _ _ 
2 | _ P _ P P P P P 
1 | R N B Q K B N R 
-------------------
  | A B C D E F G H 

Turn of: white
Succesful move
d1b3
8 | R N B Q K B _ R 
7 | P _ P P P P P P 
6 | _ P _ _ _ N _ _ 
5 | _ _ _ _ _ _ _ _ 
4 | P _ _ _ _ _ _ _ 
3 | _ Q P _ _ _ _ _ 
2 | _ P _ P P P P P 
1 | R N B _ K B N R 
-------------------
  | A B C D E F G H 

Turn of: black
Succesful move
a7a5
8 | R N B Q K B _ R 
7 | _ _ P P P P P P 
6 | _ P _ _ _ N _ _ 
5 | P _ _ _ _ _ _ _ 
4 | P _ _ _ _ _ _ _ 
3 | _ Q P _ _ _ _ _ 
2 | _ P _ P P P P P 
1 | R N B _ K B N R 
-------------------
  | A B C D E F G H 

Turn of: white
Succesful move
f2f3
8 | R N B Q K B _ R 
7 | _ _ P P P P P P 
6 | _ P _ _ _ N _ _ 
5 | P _ _ _ _ _ _ _ 
4 | P _ _ _ _ _ _ _ 
3 | _ Q P _ _ P _ _ 
2 | _ P _ P P _ P P 
1 | R N B _ K B N R 
-------------------
  | A B C D E F G H 

Turn of: black
Succesful move
c7c5
8 | R N B Q K B _ R 
7 | _ _ _ P P P P P 
6 | _ P _ _ _ N _ _ 
5 | P _ P _ _ _ _ _ 
4 | P _ _ _ _ _ _ _ 
3 | _ Q P _ _ P _ _ 
2 | _ P _ P P _ P P 
1 | R N B _ K B N R 
-------------------
  | A B C D E F G H 

Turn of: white
Succesful move
b3d1
8 | R N B Q K B _ R 
7 | _ _ _ P P P P P 
6 | _ P _ _ _ N _ _ 
5 | P _ P _ _ _ _ _ 
4 | P _ _ _ _ _ _ _ 
3 | _ _ P _ _ P _ _ 
2 | _ P _ P P _ P P 
1 | R N B Q K B N R 
-------------------
  | A B C D E F G H 

Turn of: black
Succesful move
d7d6
8 | R N B Q K B _ R 
7 | _ _ _ _ P P P P 
6 | _ P _ P _ N _ _ 
5 | P _ P _ _ _ _ _ 
4 | P _ _ _ _ _ _ _ 
3 | _ _ P _ _ P _ _ 
2 | _ P _ P P _ P P 
1 | R N B Q K B N R 
-------------------
  | A B C D E F G H 

We are playing as White
Move history:
c2c3
b7b6
a2a4
g8f6
d1b3
a7a5
f2f3
c7c5
b3d1
d7d6
8 | R N B Q K B _ R 
7 | _ _ _ _ P P P P 
6 | _ P _ P _ N _ _ 
5 | P _ P _ _ _ _ _ 
4 | P _ _ _ _ _ _ _ 
3 | _ _ P _ _ P _ _ 
2 | _ P _ P P _ P P 
1 | R N B Q K B N R 
-------------------
  | A B C D E F G H 

It is white's turn to play.
AI's move: d1c2
Move written: d1c2
[32;1m[Game] [0mPlayer's error code: 0
[32;1m[Game] [0mChecking move validity...
[32;1m[Board] [0mInitializing board...
[32;1m[Board] [0mLoading history file `championship/lizzie-iii-shallowcyan/history.csv`...
[32;1m[Board] [0mLoaded 10 move(s).
[32;1m[Board] [0mLoading move file `championship/lizzie-iii-shallowcyan/move.csv`...
[32;1m[Board] [0mWhite player is playing d1 to c2.
[32;1m[Board] [0m
[32;1m[Board] [0m    a b c d e f g h 
[32;1m[Board] [0m  -------------------
[32;1m[Board] [0m8 ||[30;1mr[0m|[30;1mk[0m|[30;1mb[0m|[30;1mQ[0m|[30;1mK[0m|[30;1mb[0m|[7;1m [0m|[30;1mr[0m|| 8
[32;1m[Board] [0m  -------------------
[32;1m[Board] [0m7 || |[7;1m [0m| |[7;1m [0m|[30;1mp[0m|[30;1mp[0m|[30;1mp[0m|[30;1mp[0m|| 7
[32;1m[Board] [0m  -------------------
[32;1m[Board] [0m6 ||[7;1m [0m|[30;1mp[0m|[7;1m [0m|[30;1mp[0m|[7;1m [0m|[30;1mk[0m|[7;1m [0m| || 6
[32;1m[Board] [0m  -------------------
[32;1m[Board] [0m5 ||[30;1mp[0m|[7;1m [0m|[30;1mp[0m|[7;1m [0m| |[7;1m [0m| |[7;1m [0m|| 5
[32;1m[Board] [0m  -------------------
[32;1m[Board] [0m4 ||[0;1mp[0m| |[7;1m [0m| |[7;1m [0m| |[7;1m [0m| || 4
[32;1m[Board] [0m  -------------------
[32;1m[Board] [0m3 || |[7;1m [0m|[0;1mp[0m|[7;1m [0m| |[0;1mp[0m| |[7;1m [0m|| 3
[32;1m[Board] [0m  -------------------
[32;1m[Board] [0m2 ||[7;1m [0m|[0;1mp[0m|[0;1mQ[0m|[0;1mp[0m|[0;1mp[0m| |[0;1mp[0m|[0;1mp[0m|| 2
[32;1m[Board] [0m  -------------------
[32;1m[Board] [0m1 ||[0;1mr[0m|[0;1mk[0m|[0;1mb[0m|[7;1m [0m|[0;1mK[0m|[0;1mb[0m|[0;1mk[0m|[0;1mr[0m|| 1
[32;1m[Board] [0m  -------------------
[32;1m[Board] [0m    a b c d e f g h
[32;1m[Board] [0m
[32;1m[Referee] [0mThis is the turn of the Black player...
8 [100m ♖ [43m ♘ [100m ♗ [43m ♕ [100m ♔ [43m ♗ [100m   [43m ♖ [40m
7 [43m   [100m   [43m   [100m   [43m ♙ [100m ♙ [43m ♙ [100m ♙ [40m
6 [100m   [43m ♙ [100m   [43m ♙ [100m   [43m ♘ [100m   [43m   [40m
5 [43m ♙ [100m   [43m ♙ [100m   [43m   [100m   [43m   [100m   [40m
4 [100m ♟ [43m   [100m   [43m   [100m   [43m   [100m   [43m   [40m
3 [43m   [100m   [43m ♟ [100m   [43m   [100m ♟ [43m   [100m   [40m
2 [100m   [43m ♟ [100m ♛ [43m ♟ [100m ♟ [43m   [100m ♟ [43m ♟ [40m
1 [43m ♜ [100m ♞ [43m ♝ [100m   [43m ♚ [100m ♝ [43m ♞ [100m ♜ [40m
   a  b  c  d  e  f  g  h  
[32;1m[Game] [0mPlayer's error code: 0
[32;1m[Game] [0mChecking move validity...
[32;1m[Board] [0mInitializing board...
[32;1m[Board] [0mLoading history file `championship/lizzie-iii-shallowcyan/history.csv`...
[32;1m[Board] [0mLoaded 11 move(s).
[32;1m[Board] [0mLoading move file `championship/lizzie-iii-shallowcyan/move.csv`...
[32;1m[Board] [0mBlack player is playing b8 to c6.
[32;1m[Board] [0m
[32;1m[Board] [0m    a b c d e f g h 
[32;1m[Board] [0m  -------------------
[32;1m[Board] [0m8 ||[30;1mr[0m| |[30;1mb[0m|[30;1mQ[0m|[30;1mK[0m|[30;1mb[0m|[7;1m [0m|[30;1mr[0m|| 8
[32;1m[Board] [0m  -------------------
[32;1m[Board] [0m7 || |[7;1m [0m| |[7;1m [0m|[30;1mp[0m|[30;1mp[0m|[30;1mp[0m|[30;1mp[0m|| 7
[32;1m[Board] [0m  -------------------
[32;1m[Board] [0m6 ||[7;1m [0m|[30;1mp[0m|[30;1mk[0m|[30;1mp[0m|[7;1m [0m|[30;1mk[0m|[7;1m [0m| || 6
[32;1m[Board] [0m  -------------------
[32;1m[Board] [0m5 ||[30;1mp[0m|[7;1m [0m|[30;1mp[0m|[7;1m [0m| |[7;1m [0m| |[7;1m [0m|| 5
[32;1m[Board] [0m  -------------------
[32;1m[Board] [0m4 ||[0;1mp[0m| |[7;1m [0m| |[7;1m [0m| |[7;1m [0m| || 4
[32;1m[Board] [0m  -------------------
[32;1m[Board] [0m3 || |[7;1m [0m|[0;1mp[0m|[7;1m [0m| |[0;1mp[0m| |[7;1m [0m|| 3
[32;1m[Board] [0m  -------------------
[32;1m[Board] [0m2 ||[7;1m [0m|[0;1mp[0m|[0;1mQ[0m|[0;1mp[0m|[0;1mp[0m| |[0;1mp[0m|[0;1mp[0m|| 2
[32;1m[Board] [0m  -------------------
[32;1m[Board] [0m1 ||[0;1mr[0m|[0;1mk[0m|[0;1mb[0m|[7;1m [0m|[0;1mK[0m|[0;1mb[0m|[0;1mk[0m|[0;1mr[0m|| 1
[32;1m[Board] [0m  -------------------
[32;1m[Board] [0m    a b c d e f g h
[32;1m[Board] [0m
[32;1m[Referee] [0mThis is the turn of the White player...
Input file: championship/lizzie-iii-shallowcyan/history.csv
Output file: championship/lizzie-iii-shallowcyan/move.csv
Turn of: white
Succesful move
c2c3
8 | R N B Q K B N R 
7 | P P P P P P P P 
6 | _ _ _ _ _ _ _ _ 
5 | _ _ _ _ _ _ _ _ 
4 | _ _ _ _ _ _ _ _ 
3 | _ _ P _ _ _ _ _ 
2 | P P _ P P P P P 
1 | R N B Q K B N R 
-------------------
  | A B C D E F G H 

Turn of: black
Succesful move
b7b6
8 | R N B Q K B N R 
7 | P _ P P P P P P 
6 | _ P _ _ _ _ _ _ 
5 | _ _ _ _ _ _ _ _ 
4 | _ _ _ _ _ _ _ _ 
3 | _ _ P _ _ _ _ _ 
2 | P P _ P P P P P 
1 | R N B Q K B N R 
-------------------
  | A B C D E F G H 

Turn of: white
Succesful move
a2a4
8 | R N B Q K B N R 
7 | P _ P P P P P P 
6 | _ P _ _ _ _ _ _ 
5 | _ _ _ _ _ _ _ _ 
4 | P _ _ _ _ _ _ _ 
3 | _ _ P _ _ _ _ _ 
2 | _ P _ P P P P P 
1 | R N B Q K B N R 
-------------------
  | A B C D E F G H 

Turn of: black
Succesful move
g8f6
8 | R N B Q K B _ R 
7 | P _ P P P P P P 
6 | _ P _ _ _ N _ _ 
5 | _ _ _ _ _ _ _ _ 
4 | P _ _ _ _ _ _ _ 
3 | _ _ P _ _ _ _ _ 
2 | _ P _ P P P P P 
1 | R N B Q K B N R 
-------------------
  | A B C D E F G H 

Turn of: white
Succesful move
d1b3
8 | R N B Q K B _ R 
7 | P _ P P P P P P 
6 | _ P _ _ _ N _ _ 
5 | _ _ _ _ _ _ _ _ 
4 | P _ _ _ _ _ _ _ 
3 | _ Q P _ _ _ _ _ 
2 | _ P _ P P P P P 
1 | R N B _ K B N R 
-------------------
  | A B C D E F G H 

Turn of: black
Succesful move
a7a5
8 | R N B Q K B _ R 
7 | _ _ P P P P P P 
6 | _ P _ _ _ N _ _ 
5 | P _ _ _ _ _ _ _ 
4 | P _ _ _ _ _ _ _ 
3 | _ Q P _ _ _ _ _ 
2 | _ P _ P P P P P 
1 | R N B _ K B N R 
-------------------
  | A B C D E F G H 

Turn of: white
Succesful move
f2f3
8 | R N B Q K B _ R 
7 | _ _ P P P P P P 
6 | _ P _ _ _ N _ _ 
5 | P _ _ _ _ _ _ _ 
4 | P _ _ _ _ _ _ _ 
3 | _ Q P _ _ P _ _ 
2 | _ P _ P P _ P P 
1 | R N B _ K B N R 
-------------------
  | A B C D E F G H 

Turn of: black
Succesful move
c7c5
8 | R N B Q K B _ R 
7 | _ _ _ P P P P P 
6 | _ P _ _ _ N _ _ 
5 | P _ P _ _ _ _ _ 
4 | P _ _ _ _ _ _ _ 
3 | _ Q P _ _ P _ _ 
2 | _ P _ P P _ P P 
1 | R N B _ K B N R 
-------------------
  | A B C D E F G H 

Turn of: white
Succesful move
b3d1
8 | R N B Q K B _ R 
7 | _ _ _ P P P P P 
6 | _ P _ _ _ N _ _ 
5 | P _ P _ _ _ _ _ 
4 | P _ _ _ _ _ _ _ 
3 | _ _ P _ _ P _ _ 
2 | _ P _ P P _ P P 
1 | R N B Q K B N R 
-------------------
  | A B C D E F G H 

Turn of: black
Succesful move
d7d6
8 | R N B Q K B _ R 
7 | _ _ _ _ P P P P 
6 | _ P _ P _ N _ _ 
5 | P _ P _ _ _ _ _ 
4 | P _ _ _ _ _ _ _ 
3 | _ _ P _ _ P _ _ 
2 | _ P _ P P _ P P 
1 | R N B Q K B N R 
-------------------
  | A B C D E F G H 

Turn of: white
Succesful move
d1c2
8 | R N B Q K B _ R 
7 | _ _ _ _ P P P P 
6 | _ P _ P _ N _ _ 
5 | P _ P _ _ _ _ _ 
4 | P _ _ _ _ _ _ _ 
3 | _ _ P _ _ P _ _ 
2 | _ P Q P P _ P P 
1 | R N B _ K B N R 
-------------------
  | A B C D E F G H 

Turn of: black
Succesful move
b8c6
8 | R _ B Q K B _ R 
7 | _ _ _ _ P P P P 
6 | _ P N P _ N _ _ 
5 | P _ P _ _ _ _ _ 
4 | P _ _ _ _ _ _ _ 
3 | _ _ P _ _ P _ _ 
2 | _ P Q P P _ P P 
1 | R N B _ K B N R 
-------------------
  | A B C D E F G H 

We are playing as White
Move history:
c2c3
b7b6
a2a4
g8f6
d1b3
a7a5
f2f3
c7c5
b3d1
d7d6
d1c2
b8c6
8 | R _ B Q K B _ R 
7 | _ _ _ _ P P P P 
6 | _ P N P _ N _ _ 
5 | P _ P _ _ _ _ _ 
4 | P _ _ _ _ _ _ _ 
3 | _ _ P _ _ P _ _ 
2 | _ P Q P P _ P P 
1 | R N B _ K B N R 
-------------------
  | A B C D E F G H 

It is white's turn to play.
AI's move: c2h7
Move written: c2h7
[32;1m[Game] [0mPlayer's error code: 0
[32;1m[Game] [0mChecking move validity...
[32;1m[Board] [0mInitializing board...
[32;1m[Board] [0mLoading history file `championship/lizzie-iii-shallowcyan/history.csv`...
[32;1m[Board] [0mLoaded 12 move(s).
[32;1m[Board] [0mLoading move file `championship/lizzie-iii-shallowcyan/move.csv`...
[32;1m[Board] [0mWhite player is playing c2 to h7.
[32;1m[Board] [0m[5;1mWhite Queen is taking Black Pawn.[0m
[32;1m[Board] [0m
[32;1m[Board] [0m    a b c d e f g h 
[32;1m[Board] [0m  -------------------
[32;1m[Board] [0m8 ||[30;1mr[0m| |[30;1mb[0m|[30;1mQ[0m|[30;1mK[0m|[30;1mb[0m|[7;1m [0m|[30;1mr[0m|| 8
[32;1m[Board] [0m  -------------------
[32;1m[Board] [0m7 || |[7;1m [0m| |[7;1m [0m|[30;1mp[0m|[30;1mp[0m|[30;1mp[0m|[0;1mQ[0m|| 7
[32;1m[Board] [0m  -------------------
[32;1m[Board] [0m6 ||[7;1m [0m|[30;1mp[0m|[30;1mk[0m|[30;1mp[0m|[7;1m [0m|[30;1mk[0m|[7;1m [0m| || 6
[32;1m[Board] [0m  -------------------
[32;1m[Board] [0m5 ||[30;1mp[0m|[7;1m [0m|[30;1mp[0m|[7;1m [0m| |[7;1m [0m| |[7;1m [0m|| 5
[32;1m[Board] [0m  -------------------
[32;1m[Board] [0m4 ||[0;1mp[0m| |[7;1m [0m| |[7;1m [0m| |[7;1m [0m| || 4
[32;1m[Board] [0m  -------------------
[32;1m[Board] [0m3 || |[7;1m [0m|[0;1mp[0m|[7;1m [0m| |[0;1mp[0m| |[7;1m [0m|| 3
[32;1m[Board] [0m  -------------------
[32;1m[Board] [0m2 ||[7;1m [0m|[0;1mp[0m|[7;1m [0m|[0;1mp[0m|[0;1mp[0m| |[0;1mp[0m|[0;1mp[0m|| 2
[32;1m[Board] [0m  -------------------
[32;1m[Board] [0m1 ||[0;1mr[0m|[0;1mk[0m|[0;1mb[0m|[7;1m [0m|[0;1mK[0m|[0;1mb[0m|[0;1mk[0m|[0;1mr[0m|| 1
[32;1m[Board] [0m  -------------------
[32;1m[Board] [0m    a b c d e f g h
[32;1m[Board] [0m
[32;1m[Referee] [0mThis is the turn of the Black player...
8 [100m ♖ [43m   [100m ♗ [43m ♕ [100m ♔ [43m ♗ [100m   [43m ♖ [40m
7 [43m   [100m   [43m   [100m   [43m ♙ [100m ♙ [43m ♙ [100m ♛ [40m
6 [100m   [43m ♙ [100m ♘ [43m ♙ [100m   [43m ♘ [100m   [43m   [40m
5 [43m ♙ [100m   [43m ♙ [100m   [43m   [100m   [43m   [100m   [40m
4 [100m ♟ [43m   [100m   [43m   [100m   [43m   [100m   [43m   [40m
3 [43m   [100m   [43m ♟ [100m   [43m   [100m ♟ [43m   [100m   [40m
2 [100m   [43m ♟ [100m   [43m ♟ [100m ♟ [43m   [100m ♟ [43m ♟ [40m
1 [43m ♜ [100m ♞ [43m ♝ [100m   [43m ♚ [100m ♝ [43m ♞ [100m ♜ [40m
   a  b  c  d  e  f  g  h  
[32;1m[Game] [0mPlayer's error code: 0
[32;1m[Game] [0mChecking move validity...
[32;1m[Board] [0mInitializing board...
[32;1m[Board] [0mLoading history file `championship/lizzie-iii-shallowcyan/history.csv`...
[32;1m[Board] [0mLoaded 13 move(s).
[32;1m[Board] [0mLoading move file `championship/lizzie-iii-shallowcyan/move.csv`...
[32;1m[Board] [0mBlack player is playing h8 to h7.
[32;1m[Board] [0m[5;1mBlack Rook is taking White Queen.[0m
[32;1m[Board] [0m
[32;1m[Board] [0m    a b c d e f g h 
[32;1m[Board] [0m  -------------------
[32;1m[Board] [0m8 ||[30;1mr[0m| |[30;1mb[0m|[30;1mQ[0m|[30;1mK[0m|[30;1mb[0m|[7;1m [0m| || 8
[32;1m[Board] [0m  -------------------
[32;1m[Board] [0m7 || |[7;1m [0m| |[7;1m [0m|[30;1mp[0m|[30;1mp[0m|[30;1mp[0m|[30;1mr[0m|| 7
[32;1m[Board] [0m  -------------------
[32;1m[Board] [0m6 ||[7;1m [0m|[30;1mp[0m|[30;1mk[0m|[30;1mp[0m|[7;1m [0m|[30;1mk[0m|[7;1m [0m| || 6
[32;1m[Board] [0m  -------------------
[32;1m[Board] [0m5 ||[30;1mp[0m|[7;1m [0m|[30;1mp[0m|[7;1m [0m| |[7;1m [0m| |[7;1m [0m|| 5
[32;1m[Board] [0m  -------------------
[32;1m[Board] [0m4 ||[0;1mp[0m| |[7;1m [0m| |[7;1m [0m| |[7;1m [0m| || 4
[32;1m[Board] [0m  -------------------
[32;1m[Board] [0m3 || |[7;1m [0m|[0;1mp[0m|[7;1m [0m| |[0;1mp[0m| |[7;1m [0m|| 3
[32;1m[Board] [0m  -------------------
[32;1m[Board] [0m2 ||[7;1m [0m|[0;1mp[0m|[7;1m [0m|[0;1mp[0m|[0;1mp[0m| |[0;1mp[0m|[0;1mp[0m|| 2
[32;1m[Board] [0m  -------------------
[32;1m[Board] [0m1 ||[0;1mr[0m|[0;1mk[0m|[0;1mb[0m|[7;1m [0m|[0;1mK[0m|[0;1mb[0m|[0;1mk[0m|[0;1mr[0m|| 1
[32;1m[Board] [0m  -------------------
[32;1m[Board] [0m    a b c d e f g h
[32;1m[Board] [0m
[32;1m[Referee] [0mThis is the turn of the White player...
Input file: championship/lizzie-iii-shallowcyan/history.csv
Output file: championship/lizzie-iii-shallowcyan/move.csv
Turn of: white
Succesful move
c2c3
8 | R N B Q K B N R 
7 | P P P P P P P P 
6 | _ _ _ _ _ _ _ _ 
5 | _ _ _ _ _ _ _ _ 
4 | _ _ _ _ _ _ _ _ 
3 | _ _ P _ _ _ _ _ 
2 | P P _ P P P P P 
1 | R N B Q K B N R 
-------------------
  | A B C D E F G H 

Turn of: black
Succesful move
b7b6
8 | R N B Q K B N R 
7 | P _ P P P P P P 
6 | _ P _ _ _ _ _ _ 
5 | _ _ _ _ _ _ _ _ 
4 | _ _ _ _ _ _ _ _ 
3 | _ _ P _ _ _ _ _ 
2 | P P _ P P P P P 
1 | R N B Q K B N R 
-------------------
  | A B C D E F G H 

Turn of: white
Succesful move
a2a4
8 | R N B Q K B N R 
7 | P _ P P P P P P 
6 | _ P _ _ _ _ _ _ 
5 | _ _ _ _ _ _ _ _ 
4 | P _ _ _ _ _ _ _ 
3 | _ _ P _ _ _ _ _ 
2 | _ P _ P P P P P 
1 | R N B Q K B N R 
-------------------
  | A B C D E F G H 

Turn of: black
Succesful move
g8f6
8 | R N B Q K B _ R 
7 | P _ P P P P P P 
6 | _ P _ _ _ N _ _ 
5 | _ _ _ _ _ _ _ _ 
4 | P _ _ _ _ _ _ _ 
3 | _ _ P _ _ _ _ _ 
2 | _ P _ P P P P P 
1 | R N B Q K B N R 
-------------------
  | A B C D E F G H 

Turn of: white
Succesful move
d1b3
8 | R N B Q K B _ R 
7 | P _ P P P P P P 
6 | _ P _ _ _ N _ _ 
5 | _ _ _ _ _ _ _ _ 
4 | P _ _ _ _ _ _ _ 
3 | _ Q P _ _ _ _ _ 
2 | _ P _ P P P P P 
1 | R N B _ K B N R 
-------------------
  | A B C D E F G H 

Turn of: black
Succesful move
a7a5
8 | R N B Q K B _ R 
7 | _ _ P P P P P P 
6 | _ P _ _ _ N _ _ 
5 | P _ _ _ _ _ _ _ 
4 | P _ _ _ _ _ _ _ 
3 | _ Q P _ _ _ _ _ 
2 | _ P _ P P P P P 
1 | R N B _ K B N R 
-------------------
  | A B C D E F G H 

Turn of: white
Succesful move
f2f3
8 | R N B Q K B _ R 
7 | _ _ P P P P P P 
6 | _ P _ _ _ N _ _ 
5 | P _ _ _ _ _ _ _ 
4 | P _ _ _ _ _ _ _ 
3 | _ Q P _ _ P _ _ 
2 | _ P _ P P _ P P 
1 | R N B _ K B N R 
-------------------
  | A B C D E F G H 

Turn of: black
Succesful move
c7c5
8 | R N B Q K B _ R 
7 | _ _ _ P P P P P 
6 | _ P _ _ _ N _ _ 
5 | P _ P _ _ _ _ _ 
4 | P _ _ _ _ _ _ _ 
3 | _ Q P _ _ P _ _ 
2 | _ P _ P P _ P P 
1 | R N B _ K B N R 
-------------------
  | A B C D E F G H 

Turn of: white
Succesful move
b3d1
8 | R N B Q K B _ R 
7 | _ _ _ P P P P P 
6 | _ P _ _ _ N _ _ 
5 | P _ P _ _ _ _ _ 
4 | P _ _ _ _ _ _ _ 
3 | _ _ P _ _ P _ _ 
2 | _ P _ P P _ P P 
1 | R N B Q K B N R 
-------------------
  | A B C D E F G H 

Turn of: black
Succesful move
d7d6
8 | R N B Q K B _ R 
7 | _ _ _ _ P P P P 
6 | _ P _ P _ N _ _ 
5 | P _ P _ _ _ _ _ 
4 | P _ _ _ _ _ _ _ 
3 | _ _ P _ _ P _ _ 
2 | _ P _ P P _ P P 
1 | R N B Q K B N R 
-------------------
  | A B C D E F G H 

Turn of: white
Succesful move
d1c2
8 | R N B Q K B _ R 
7 | _ _ _ _ P P P P 
6 | _ P _ P _ N _ _ 
5 | P _ P _ _ _ _ _ 
4 | P _ _ _ _ _ _ _ 
3 | _ _ P _ _ P _ _ 
2 | _ P Q P P _ P P 
1 | R N B _ K B N R 
-------------------
  | A B C D E F G H 

Turn of: black
Succesful move
b8c6
8 | R _ B Q K B _ R 
7 | _ _ _ _ P P P P 
6 | _ P N P _ N _ _ 
5 | P _ P _ _ _ _ _ 
4 | P _ _ _ _ _ _ _ 
3 | _ _ P _ _ P _ _ 
2 | _ P Q P P _ P P 
1 | R N B _ K B N R 
-------------------
  | A B C D E F G H 

Turn of: white
Succesful move
c2h7
8 | R _ B Q K B _ R 
7 | _ _ _ _ P P P Q 
6 | _ P N P _ N _ _ 
5 | P _ P _ _ _ _ _ 
4 | P _ _ _ _ _ _ _ 
3 | _ _ P _ _ P _ _ 
2 | _ P _ P P _ P P 
1 | R N B _ K B N R 
-------------------
  | A B C D E F G H 

Turn of: black
Succesful move
h8h7
8 | R _ B Q K B _ _ 
7 | _ _ _ _ P P P R 
6 | _ P N P _ N _ _ 
5 | P _ P _ _ _ _ _ 
4 | P _ _ _ _ _ _ _ 
3 | _ _ P _ _ P _ _ 
2 | _ P _ P P _ P P 
1 | R N B _ K B N R 
-------------------
  | A B C D E F G H 

We are playing as White
Move history:
c2c3
b7b6
a2a4
g8f6
d1b3
a7a5
f2f3
c7c5
b3d1
d7d6
d1c2
b8c6
c2h7
h8h7
8 | R _ B Q K B _ _ 
7 | _ _ _ _ P P P R 
6 | _ P N P _ N _ _ 
5 | P _ P _ _ _ _ _ 
4 | P _ _ _ _ _ _ _ 
3 | _ _ P _ _ P _ _ 
2 | _ P _ P P _ P P 
1 | R N B _ K B N R 
-------------------
  | A B C D E F G H 

It is white's turn to play.
AI's move: e2e4
Move written: e2e4
[32;1m[Game] [0mPlayer's error code: 0
[32;1m[Game] [0mChecking move validity...
[32;1m[Board] [0mInitializing board...
[32;1m[Board] [0mLoading history file `championship/lizzie-iii-shallowcyan/history.csv`...
[32;1m[Board] [0mLoaded 14 move(s).
[32;1m[Board] [0mLoading move file `championship/lizzie-iii-shallowcyan/move.csv`...
[32;1m[Board] [0mWhite player is playing e2 to e4.
[32;1m[Board] [0m
[32;1m[Board] [0m    a b c d e f g h 
[32;1m[Board] [0m  -------------------
[32;1m[Board] [0m8 ||[30;1mr[0m| |[30;1mb[0m|[30;1mQ[0m|[30;1mK[0m|[30;1mb[0m|[7;1m [0m| || 8
[32;1m[Board] [0m  -------------------
[32;1m[Board] [0m7 || |[7;1m [0m| |[7;1m [0m|[30;1mp[0m|[30;1mp[0m|[30;1mp[0m|[30;1mr[0m|| 7
[32;1m[Board] [0m  -------------------
[32;1m[Board] [0m6 ||[7;1m [0m|[30;1mp[0m|[30;1mk[0m|[30;1mp[0m|[7;1m [0m|[30;1mk[0m|[7;1m [0m| || 6
[32;1m[Board] [0m  -------------------
[32;1m[Board] [0m5 ||[30;1mp[0m|[7;1m [0m|[30;1mp[0m|[7;1m [0m| |[7;1m [0m| |[7;1m [0m|| 5
[32;1m[Board] [0m  -------------------
[32;1m[Board] [0m4 ||[0;1mp[0m| |[7;1m [0m| |[0;1mp[0m| |[7;1m [0m| || 4
[32;1m[Board] [0m  -------------------
[32;1m[Board] [0m3 || |[7;1m [0m|[0;1mp[0m|[7;1m [0m| |[0;1mp[0m| |[7;1m [0m|| 3
[32;1m[Board] [0m  -------------------
[32;1m[Board] [0m2 ||[7;1m [0m|[0;1mp[0m|[7;1m [0m|[0;1mp[0m|[7;1m [0m| |[0;1mp[0m|[0;1mp[0m|| 2
[32;1m[Board] [0m  -------------------
[32;1m[Board] [0m1 ||[0;1mr[0m|[0;1mk[0m|[0;1mb[0m|[7;1m [0m|[0;1mK[0m|[0;1mb[0m|[0;1mk[0m|[0;1mr[0m|| 1
[32;1m[Board] [0m  -------------------
[32;1m[Board] [0m    a b c d e f g h
[32;1m[Board] [0m
[32;1m[Referee] [0mThis is the turn of the Black player...
8 [100m ♖ [43m   [100m ♗ [43m ♕ [100m ♔ [43m ♗ [100m   [43m   [40m
7 [43m   [100m   [43m   [100m   [43m ♙ [100m ♙ [43m ♙ [100m ♖ [40m
6 [100m   [43m ♙ [100m ♘ [43m ♙ [100m   [43m ♘ [100m   [43m   [40m
5 [43m ♙ [100m   [43m ♙ [100m   [43m   [100m   [43m   [100m   [40m
4 [100m ♟ [43m   [100m   [43m   [100m ♟ [43m   [100m   [43m   [40m
3 [43m   [100m   [43m ♟ [100m   [43m   [100m ♟ [43m   [100m   [40m
2 [100m   [43m ♟ [100m   [43m ♟ [100m   [43m   [100m ♟ [43m ♟ [40m
1 [43m ♜ [100m ♞ [43m ♝ [100m   [43m ♚ [100m ♝ [43m ♞ [100m ♜ [40m
   a  b  c  d  e  f  g  h  
[32;1m[Game] [0mPlayer's error code: 0
[32;1m[Game] [0mChecking move validity...
[32;1m[Board] [0mInitializing board...
[32;1m[Board] [0mLoading history file `championship/lizzie-iii-shallowcyan/history.csv`...
[32;1m[Board] [0mLoaded 15 move(s).
[32;1m[Board] [0mLoading move file `championship/lizzie-iii-shallowcyan/move.csv`...
[32;1m[Board] [0mBlack player is playing c8 to a6.
[32;1m[Board] [0m
[32;1m[Board] [0m    a b c d e f g h 
[32;1m[Board] [0m  -------------------
[32;1m[Board] [0m8 ||[30;1mr[0m| |[7;1m [0m|[30;1mQ[0m|[30;1mK[0m|[30;1mb[0m|[7;1m [0m| || 8
[32;1m[Board] [0m  -------------------
[32;1m[Board] [0m7 || |[7;1m [0m| |[7;1m [0m|[30;1mp[0m|[30;1mp[0m|[30;1mp[0m|[30;1mr[0m|| 7
[32;1m[Board] [0m  -------------------
[32;1m[Board] [0m6 ||[30;1mb[0m|[30;1mp[0m|[30;1mk[0m|[30;1mp[0m|[7;1m [0m|[30;1mk[0m|[7;1m [0m| || 6
[32;1m[Board] [0m  -------------------
[32;1m[Board] [0m5 ||[30;1mp[0m|[7;1m [0m|[30;1mp[0m|[7;1m [0m| |[7;1m [0m| |[7;1m [0m|| 5
[32;1m[Board] [0m  -------------------
[32;1m[Board] [0m4 ||[0;1mp[0m| |[7;1m [0m| |[0;1mp[0m| |[7;1m [0m| || 4
[32;1m[Board] [0m  -------------------
[32;1m[Board] [0m3 || |[7;1m [0m|[0;1mp[0m|[7;1m [0m| |[0;1mp[0m| |[7;1m [0m|| 3
[32;1m[Board] [0m  -------------------
[32;1m[Board] [0m2 ||[7;1m [0m|[0;1mp[0m|[7;1m [0m|[0;1mp[0m|[7;1m [0m| |[0;1mp[0m|[0;1mp[0m|| 2
[32;1m[Board] [0m  -------------------
[32;1m[Board] [0m1 ||[0;1mr[0m|[0;1mk[0m|[0;1mb[0m|[7;1m [0m|[0;1mK[0m|[0;1mb[0m|[0;1mk[0m|[0;1mr[0m|| 1
[32;1m[Board] [0m  -------------------
[32;1m[Board] [0m    a b c d e f g h
[32;1m[Board] [0m
[32;1m[Referee] [0mThis is the turn of the White player...
Input file: championship/lizzie-iii-shallowcyan/history.csv
Output file: championship/lizzie-iii-shallowcyan/move.csv
Turn of: white
Succesful move
c2c3
8 | R N B Q K B N R 
7 | P P P P P P P P 
6 | _ _ _ _ _ _ _ _ 
5 | _ _ _ _ _ _ _ _ 
4 | _ _ _ _ _ _ _ _ 
3 | _ _ P _ _ _ _ _ 
2 | P P _ P P P P P 
1 | R N B Q K B N R 
-------------------
  | A B C D E F G H 

Turn of: black
Succesful move
b7b6
8 | R N B Q K B N R 
7 | P _ P P P P P P 
6 | _ P _ _ _ _ _ _ 
5 | _ _ _ _ _ _ _ _ 
4 | _ _ _ _ _ _ _ _ 
3 | _ _ P _ _ _ _ _ 
2 | P P _ P P P P P 
1 | R N B Q K B N R 
-------------------
  | A B C D E F G H 

Turn of: white
Succesful move
a2a4
8 | R N B Q K B N R 
7 | P _ P P P P P P 
6 | _ P _ _ _ _ _ _ 
5 | _ _ _ _ _ _ _ _ 
4 | P _ _ _ _ _ _ _ 
3 | _ _ P _ _ _ _ _ 
2 | _ P _ P P P P P 
1 | R N B Q K B N R 
-------------------
  | A B C D E F G H 

Turn of: black
Succesful move
g8f6
8 | R N B Q K B _ R 
7 | P _ P P P P P P 
6 | _ P _ _ _ N _ _ 
5 | _ _ _ _ _ _ _ _ 
4 | P _ _ _ _ _ _ _ 
3 | _ _ P _ _ _ _ _ 
2 | _ P _ P P P P P 
1 | R N B Q K B N R 
-------------------
  | A B C D E F G H 

Turn of: white
Succesful move
d1b3
8 | R N B Q K B _ R 
7 | P _ P P P P P P 
6 | _ P _ _ _ N _ _ 
5 | _ _ _ _ _ _ _ _ 
4 | P _ _ _ _ _ _ _ 
3 | _ Q P _ _ _ _ _ 
2 | _ P _ P P P P P 
1 | R N B _ K B N R 
-------------------
  | A B C D E F G H 

Turn of: black
Succesful move
a7a5
8 | R N B Q K B _ R 
7 | _ _ P P P P P P 
6 | _ P _ _ _ N _ _ 
5 | P _ _ _ _ _ _ _ 
4 | P _ _ _ _ _ _ _ 
3 | _ Q P _ _ _ _ _ 
2 | _ P _ P P P P P 
1 | R N B _ K B N R 
-------------------
  | A B C D E F G H 

Turn of: white
Succesful move
f2f3
8 | R N B Q K B _ R 
7 | _ _ P P P P P P 
6 | _ P _ _ _ N _ _ 
5 | P _ _ _ _ _ _ _ 
4 | P _ _ _ _ _ _ _ 
3 | _ Q P _ _ P _ _ 
2 | _ P _ P P _ P P 
1 | R N B _ K B N R 
-------------------
  | A B C D E F G H 

Turn of: black
Succesful move
c7c5
8 | R N B Q K B _ R 
7 | _ _ _ P P P P P 
6 | _ P _ _ _ N _ _ 
5 | P _ P _ _ _ _ _ 
4 | P _ _ _ _ _ _ _ 
3 | _ Q P _ _ P _ _ 
2 | _ P _ P P _ P P 
1 | R N B _ K B N R 
-------------------
  | A B C D E F G H 

Turn of: white
Succesful move
b3d1
8 | R N B Q K B _ R 
7 | _ _ _ P P P P P 
6 | _ P _ _ _ N _ _ 
5 | P _ P _ _ _ _ _ 
4 | P _ _ _ _ _ _ _ 
3 | _ _ P _ _ P _ _ 
2 | _ P _ P P _ P P 
1 | R N B Q K B N R 
-------------------
  | A B C D E F G H 

Turn of: black
Succesful move
d7d6
8 | R N B Q K B _ R 
7 | _ _ _ _ P P P P 
6 | _ P _ P _ N _ _ 
5 | P _ P _ _ _ _ _ 
4 | P _ _ _ _ _ _ _ 
3 | _ _ P _ _ P _ _ 
2 | _ P _ P P _ P P 
1 | R N B Q K B N R 
-------------------
  | A B C D E F G H 

Turn of: white
Succesful move
d1c2
8 | R N B Q K B _ R 
7 | _ _ _ _ P P P P 
6 | _ P _ P _ N _ _ 
5 | P _ P _ _ _ _ _ 
4 | P _ _ _ _ _ _ _ 
3 | _ _ P _ _ P _ _ 
2 | _ P Q P P _ P P 
1 | R N B _ K B N R 
-------------------
  | A B C D E F G H 

Turn of: black
Succesful move
b8c6
8 | R _ B Q K B _ R 
7 | _ _ _ _ P P P P 
6 | _ P N P _ N _ _ 
5 | P _ P _ _ _ _ _ 
4 | P _ _ _ _ _ _ _ 
3 | _ _ P _ _ P _ _ 
2 | _ P Q P P _ P P 
1 | R N B _ K B N R 
-------------------
  | A B C D E F G H 

Turn of: white
Succesful move
c2h7
8 | R _ B Q K B _ R 
7 | _ _ _ _ P P P Q 
6 | _ P N P _ N _ _ 
5 | P _ P _ _ _ _ _ 
4 | P _ _ _ _ _ _ _ 
3 | _ _ P _ _ P _ _ 
2 | _ P _ P P _ P P 
1 | R N B _ K B N R 
-------------------
  | A B C D E F G H 

Turn of: black
Succesful move
h8h7
8 | R _ B Q K B _ _ 
7 | _ _ _ _ P P P R 
6 | _ P N P _ N _ _ 
5 | P _ P _ _ _ _ _ 
4 | P _ _ _ _ _ _ _ 
3 | _ _ P _ _ P _ _ 
2 | _ P _ P P _ P P 
1 | R N B _ K B N R 
-------------------
  | A B C D E F G H 

Turn of: white
Succesful move
e2e4
8 | R _ B Q K B _ _ 
7 | _ _ _ _ P P P R 
6 | _ P N P _ N _ _ 
5 | P _ P _ _ _ _ _ 
4 | P _ _ _ P _ _ _ 
3 | _ _ P _ _ P _ _ 
2 | _ P _ P _ _ P P 
1 | R N B _ K B N R 
-------------------
  | A B C D E F G H 

Turn of: black
Succesful move
c8a6
8 | R _ _ Q K B _ _ 
7 | _ _ _ _ P P P R 
6 | B P N P _ N _ _ 
5 | P _ P _ _ _ _ _ 
4 | P _ _ _ P _ _ _ 
3 | _ _ P _ _ P _ _ 
2 | _ P _ P _ _ P P 
1 | R N B _ K B N R 
-------------------
  | A B C D E F G H 

We are playing as White
Move history:
c2c3
b7b6
a2a4
g8f6
d1b3
a7a5
f2f3
c7c5
b3d1
d7d6
d1c2
b8c6
c2h7
h8h7
e2e4
c8a6
8 | R _ _ Q K B _ _ 
7 | _ _ _ _ P P P R 
6 | B P N P _ N _ _ 
5 | P _ P _ _ _ _ _ 
4 | P _ _ _ P _ _ _ 
3 | _ _ P _ _ P _ _ 
2 | _ P _ P _ _ P P 
1 | R N B _ K B N R 
-------------------
  | A B C D E F G H 

It is white's turn to play.
AI's move: h2h4
Move written: h2h4
[32;1m[Game] [0mPlayer's error code: 0
[32;1m[Game] [0mChecking move validity...
[32;1m[Board] [0mInitializing board...
[32;1m[Board] [0mLoading history file `championship/lizzie-iii-shallowcyan/history.csv`...
[32;1m[Board] [0mLoaded 16 move(s).
[32;1m[Board] [0mLoading move file `championship/lizzie-iii-shallowcyan/move.csv`...
[32;1m[Board] [0mWhite player is playing h2 to h4.
[32;1m[Board] [0m
[32;1m[Board] [0m    a b c d e f g h 
[32;1m[Board] [0m  -------------------
[32;1m[Board] [0m8 ||[30;1mr[0m| |[7;1m [0m|[30;1mQ[0m|[30;1mK[0m|[30;1mb[0m|[7;1m [0m| || 8
[32;1m[Board] [0m  -------------------
[32;1m[Board] [0m7 || |[7;1m [0m| |[7;1m [0m|[30;1mp[0m|[30;1mp[0m|[30;1mp[0m|[30;1mr[0m|| 7
[32;1m[Board] [0m  -------------------
[32;1m[Board] [0m6 ||[30;1mb[0m|[30;1mp[0m|[30;1mk[0m|[30;1mp[0m|[7;1m [0m|[30;1mk[0m|[7;1m [0m| || 6
[32;1m[Board] [0m  -------------------
[32;1m[Board] [0m5 ||[30;1mp[0m|[7;1m [0m|[30;1mp[0m|[7;1m [0m| |[7;1m [0m| |[7;1m [0m|| 5
[32;1m[Board] [0m  -------------------
[32;1m[Board] [0m4 ||[0;1mp[0m| |[7;1m [0m| |[0;1mp[0m| |[7;1m [0m|[0;1mp[0m|| 4
[32;1m[Board] [0m  -------------------
[32;1m[Board] [0m3 || |[7;1m [0m|[0;1mp[0m|[7;1m [0m| |[0;1mp[0m| |[7;1m [0m|| 3
[32;1m[Board] [0m  -------------------
[32;1m[Board] [0m2 ||[7;1m [0m|[0;1mp[0m|[7;1m [0m|[0;1mp[0m|[7;1m [0m| |[0;1mp[0m| || 2
[32;1m[Board] [0m  -------------------
[32;1m[Board] [0m1 ||[0;1mr[0m|[0;1mk[0m|[0;1mb[0m|[7;1m [0m|[0;1mK[0m|[0;1mb[0m|[0;1mk[0m|[0;1mr[0m|| 1
[32;1m[Board] [0m  -------------------
[32;1m[Board] [0m    a b c d e f g h
[32;1m[Board] [0m
[32;1m[Referee] [0mThis is the turn of the Black player...
8 [100m ♖ [43m   [100m   [43m ♕ [100m ♔ [43m ♗ [100m   [43m   [40m
7 [43m   [100m   [43m   [100m   [43m ♙ [100m ♙ [43m ♙ [100m ♖ [40m
6 [100m ♗ [43m ♙ [100m ♘ [43m ♙ [100m   [43m ♘ [100m   [43m   [40m
5 [43m ♙ [100m   [43m ♙ [100m   [43m   [100m   [43m   [100m   [40m
4 [100m ♟ [43m   [100m   [43m   [100m ♟ [43m   [100m   [43m ♟ [40m
3 [43m   [100m   [43m ♟ [100m   [43m   [100m ♟ [43m   [100m   [40m
2 [100m   [43m ♟ [100m   [43m ♟ [100m   [43m   [100m ♟ [43m   [40m
1 [43m ♜ [100m ♞ [43m ♝ [100m   [43m ♚ [100m ♝ [43m ♞ [100m ♜ [40m
   a  b  c  d  e  f  g  h  
[32;1m[Game] [0mPlayer's error code: 0
[32;1m[Game] [0mChecking move validity...
[32;1m[Board] [0mInitializing board...
[32;1m[Board] [0mLoading history file `championship/lizzie-iii-shallowcyan/history.csv`...
[32;1m[Board] [0mLoaded 17 move(s).
[32;1m[Board] [0mLoading move file `championship/lizzie-iii-shallowcyan/move.csv`...
[32;1m[Board] [0mBlack player is playing e7 to e5.
[32;1m[Board] [0m
[32;1m[Board] [0m    a b c d e f g h 
[32;1m[Board] [0m  -------------------
[32;1m[Board] [0m8 ||[30;1mr[0m| |[7;1m [0m|[30;1mQ[0m|[30;1mK[0m|[30;1mb[0m|[7;1m [0m| || 8
[32;1m[Board] [0m  -------------------
[32;1m[Board] [0m7 || |[7;1m [0m| |[7;1m [0m| |[30;1mp[0m|[30;1mp[0m|[30;1mr[0m|| 7
[32;1m[Board] [0m  -------------------
[32;1m[Board] [0m6 ||[30;1mb[0m|[30;1mp[0m|[30;1mk[0m|[30;1mp[0m|[7;1m [0m|[30;1mk[0m|[7;1m [0m| || 6
[32;1m[Board] [0m  -------------------
[32;1m[Board] [0m5 ||[30;1mp[0m|[7;1m [0m|[30;1mp[0m|[7;1m [0m|[30;1mp[0m|[7;1m [0m| |[7;1m [0m|| 5
[32;1m[Board] [0m  -------------------
[32;1m[Board] [0m4 ||[0;1mp[0m| |[7;1m [0m| |[0;1mp[0m| |[7;1m [0m|[0;1mp[0m|| 4
[32;1m[Board] [0m  -------------------
[32;1m[Board] [0m3 || |[7;1m [0m|[0;1mp[0m|[7;1m [0m| |[0;1mp[0m| |[7;1m [0m|| 3
[32;1m[Board] [0m  -------------------
[32;1m[Board] [0m2 ||[7;1m [0m|[0;1mp[0m|[7;1m [0m|[0;1mp[0m|[7;1m [0m| |[0;1mp[0m| || 2
[32;1m[Board] [0m  -------------------
[32;1m[Board] [0m1 ||[0;1mr[0m|[0;1mk[0m|[0;1mb[0m|[7;1m [0m|[0;1mK[0m|[0;1mb[0m|[0;1mk[0m|[0;1mr[0m|| 1
[32;1m[Board] [0m  -------------------
[32;1m[Board] [0m    a b c d e f g h
[32;1m[Board] [0m
[32;1m[Referee] [0mThis is the turn of the White player...
Input file: championship/lizzie-iii-shallowcyan/history.csv
Output file: championship/lizzie-iii-shallowcyan/move.csv
Turn of: white
Succesful move
c2c3
8 | R N B Q K B N R 
7 | P P P P P P P P 
6 | _ _ _ _ _ _ _ _ 
5 | _ _ _ _ _ _ _ _ 
4 | _ _ _ _ _ _ _ _ 
3 | _ _ P _ _ _ _ _ 
2 | P P _ P P P P P 
1 | R N B Q K B N R 
-------------------
  | A B C D E F G H 

Turn of: black
Succesful move
b7b6
8 | R N B Q K B N R 
7 | P _ P P P P P P 
6 | _ P _ _ _ _ _ _ 
5 | _ _ _ _ _ _ _ _ 
4 | _ _ _ _ _ _ _ _ 
3 | _ _ P _ _ _ _ _ 
2 | P P _ P P P P P 
1 | R N B Q K B N R 
-------------------
  | A B C D E F G H 

Turn of: white
Succesful move
a2a4
8 | R N B Q K B N R 
7 | P _ P P P P P P 
6 | _ P _ _ _ _ _ _ 
5 | _ _ _ _ _ _ _ _ 
4 | P _ _ _ _ _ _ _ 
3 | _ _ P _ _ _ _ _ 
2 | _ P _ P P P P P 
1 | R N B Q K B N R 
-------------------
  | A B C D E F G H 

Turn of: black
Succesful move
g8f6
8 | R N B Q K B _ R 
7 | P _ P P P P P P 
6 | _ P _ _ _ N _ _ 
5 | _ _ _ _ _ _ _ _ 
4 | P _ _ _ _ _ _ _ 
3 | _ _ P _ _ _ _ _ 
2 | _ P _ P P P P P 
1 | R N B Q K B N R 
-------------------
  | A B C D E F G H 

Turn of: white
Succesful move
d1b3
8 | R N B Q K B _ R 
7 | P _ P P P P P P 
6 | _ P _ _ _ N _ _ 
5 | _ _ _ _ _ _ _ _ 
4 | P _ _ _ _ _ _ _ 
3 | _ Q P _ _ _ _ _ 
2 | _ P _ P P P P P 
1 | R N B _ K B N R 
-------------------
  | A B C D E F G H 

Turn of: black
Succesful move
a7a5
8 | R N B Q K B _ R 
7 | _ _ P P P P P P 
6 | _ P _ _ _ N _ _ 
5 | P _ _ _ _ _ _ _ 
4 | P _ _ _ _ _ _ _ 
3 | _ Q P _ _ _ _ _ 
2 | _ P _ P P P P P 
1 | R N B _ K B N R 
-------------------
  | A B C D E F G H 

Turn of: white
Succesful move
f2f3
8 | R N B Q K B _ R 
7 | _ _ P P P P P P 
6 | _ P _ _ _ N _ _ 
5 | P _ _ _ _ _ _ _ 
4 | P _ _ _ _ _ _ _ 
3 | _ Q P _ _ P _ _ 
2 | _ P _ P P _ P P 
1 | R N B _ K B N R 
-------------------
  | A B C D E F G H 

Turn of: black
Succesful move
c7c5
8 | R N B Q K B _ R 
7 | _ _ _ P P P P P 
6 | _ P _ _ _ N _ _ 
5 | P _ P _ _ _ _ _ 
4 | P _ _ _ _ _ _ _ 
3 | _ Q P _ _ P _ _ 
2 | _ P _ P P _ P P 
1 | R N B _ K B N R 
-------------------
  | A B C D E F G H 

Turn of: white
Succesful move
b3d1
8 | R N B Q K B _ R 
7 | _ _ _ P P P P P 
6 | _ P _ _ _ N _ _ 
5 | P _ P _ _ _ _ _ 
4 | P _ _ _ _ _ _ _ 
3 | _ _ P _ _ P _ _ 
2 | _ P _ P P _ P P 
1 | R N B Q K B N R 
-------------------
  | A B C D E F G H 

Turn of: black
Succesful move
d7d6
8 | R N B Q K B _ R 
7 | _ _ _ _ P P P P 
6 | _ P _ P _ N _ _ 
5 | P _ P _ _ _ _ _ 
4 | P _ _ _ _ _ _ _ 
3 | _ _ P _ _ P _ _ 
2 | _ P _ P P _ P P 
1 | R N B Q K B N R 
-------------------
  | A B C D E F G H 

Turn of: white
Succesful move
d1c2
8 | R N B Q K B _ R 
7 | _ _ _ _ P P P P 
6 | _ P _ P _ N _ _ 
5 | P _ P _ _ _ _ _ 
4 | P _ _ _ _ _ _ _ 
3 | _ _ P _ _ P _ _ 
2 | _ P Q P P _ P P 
1 | R N B _ K B N R 
-------------------
  | A B C D E F G H 

Turn of: black
Succesful move
b8c6
8 | R _ B Q K B _ R 
7 | _ _ _ _ P P P P 
6 | _ P N P _ N _ _ 
5 | P _ P _ _ _ _ _ 
4 | P _ _ _ _ _ _ _ 
3 | _ _ P _ _ P _ _ 
2 | _ P Q P P _ P P 
1 | R N B _ K B N R 
-------------------
  | A B C D E F G H 

Turn of: white
Succesful move
c2h7
8 | R _ B Q K B _ R 
7 | _ _ _ _ P P P Q 
6 | _ P N P _ N _ _ 
5 | P _ P _ _ _ _ _ 
4 | P _ _ _ _ _ _ _ 
3 | _ _ P _ _ P _ _ 
2 | _ P _ P P _ P P 
1 | R N B _ K B N R 
-------------------
  | A B C D E F G H 

Turn of: black
Succesful move
h8h7
8 | R _ B Q K B _ _ 
7 | _ _ _ _ P P P R 
6 | _ P N P _ N _ _ 
5 | P _ P _ _ _ _ _ 
4 | P _ _ _ _ _ _ _ 
3 | _ _ P _ _ P _ _ 
2 | _ P _ P P _ P P 
1 | R N B _ K B N R 
-------------------
  | A B C D E F G H 

Turn of: white
Succesful move
e2e4
8 | R _ B Q K B _ _ 
7 | _ _ _ _ P P P R 
6 | _ P N P _ N _ _ 
5 | P _ P _ _ _ _ _ 
4 | P _ _ _ P _ _ _ 
3 | _ _ P _ _ P _ _ 
2 | _ P _ P _ _ P P 
1 | R N B _ K B N R 
-------------------
  | A B C D E F G H 

Turn of: black
Succesful move
c8a6
8 | R _ _ Q K B _ _ 
7 | _ _ _ _ P P P R 
6 | B P N P _ N _ _ 
5 | P _ P _ _ _ _ _ 
4 | P _ _ _ P _ _ _ 
3 | _ _ P _ _ P _ _ 
2 | _ P _ P _ _ P P 
1 | R N B _ K B N R 
-------------------
  | A B C D E F G H 

Turn of: white
Succesful move
h2h4
8 | R _ _ Q K B _ _ 
7 | _ _ _ _ P P P R 
6 | B P N P _ N _ _ 
5 | P _ P _ _ _ _ _ 
4 | P _ _ _ P _ _ P 
3 | _ _ P _ _ P _ _ 
2 | _ P _ P _ _ P _ 
1 | R N B _ K B N R 
-------------------
  | A B C D E F G H 

Turn of: black
Succesful move
e7e5
8 | R _ _ Q K B _ _ 
7 | _ _ _ _ _ P P R 
6 | B P N P _ N _ _ 
5 | P _ P _ P _ _ _ 
4 | P _ _ _ P _ _ P 
3 | _ _ P _ _ P _ _ 
2 | _ P _ P _ _ P _ 
1 | R N B _ K B N R 
-------------------
  | A B C D E F G H 

We are playing as White
Move history:
c2c3
b7b6
a2a4
g8f6
d1b3
a7a5
f2f3
c7c5
b3d1
d7d6
d1c2
b8c6
c2h7
h8h7
e2e4
c8a6
h2h4
e7e5
8 | R _ _ Q K B _ _ 
7 | _ _ _ _ _ P P R 
6 | B P N P _ N _ _ 
5 | P _ P _ P _ _ _ 
4 | P _ _ _ P _ _ P 
3 | _ _ P _ _ P _ _ 
2 | _ P _ P _ _ P _ 
1 | R N B _ K B N R 
-------------------
  | A B C D E F G H 

It is white's turn to play.
AI's move: g1h3
Move written: g1h3
[32;1m[Game] [0mPlayer's error code: 0
[32;1m[Game] [0mChecking move validity...
[32;1m[Board] [0mInitializing board...
[32;1m[Board] [0mLoading history file `championship/lizzie-iii-shallowcyan/history.csv`...
[32;1m[Board] [0mLoaded 18 move(s).
[32;1m[Board] [0mLoading move file `championship/lizzie-iii-shallowcyan/move.csv`...
[32;1m[Board] [0mWhite player is playing g1 to h3.
[32;1m[Board] [0m
[32;1m[Board] [0m    a b c d e f g h 
[32;1m[Board] [0m  -------------------
[32;1m[Board] [0m8 ||[30;1mr[0m| |[7;1m [0m|[30;1mQ[0m|[30;1mK[0m|[30;1mb[0m|[7;1m [0m| || 8
[32;1m[Board] [0m  -------------------
[32;1m[Board] [0m7 || |[7;1m [0m| |[7;1m [0m| |[30;1mp[0m|[30;1mp[0m|[30;1mr[0m|| 7
[32;1m[Board] [0m  -------------------
[32;1m[Board] [0m6 ||[30;1mb[0m|[30;1mp[0m|[30;1mk[0m|[30;1mp[0m|[7;1m [0m|[30;1mk[0m|[7;1m [0m| || 6
[32;1m[Board] [0m  -------------------
[32;1m[Board] [0m5 ||[30;1mp[0m|[7;1m [0m|[30;1mp[0m|[7;1m [0m|[30;1mp[0m|[7;1m [0m| |[7;1m [0m|| 5
[32;1m[Board] [0m  -------------------
[32;1m[Board] [0m4 ||[0;1mp[0m| |[7;1m [0m| |[0;1mp[0m| |[7;1m [0m|[0;1mp[0m|| 4
[32;1m[Board] [0m  -------------------
[32;1m[Board] [0m3 || |[7;1m [0m|[0;1mp[0m|[7;1m [0m| |[0;1mp[0m| |[0;1mk[0m|| 3
[32;1m[Board] [0m  -------------------
[32;1m[Board] [0m2 ||[7;1m [0m|[0;1mp[0m|[7;1m [0m|[0;1mp[0m|[7;1m [0m| |[0;1mp[0m| || 2
[32;1m[Board] [0m  -------------------
[32;1m[Board] [0m1 ||[0;1mr[0m|[0;1mk[0m|[0;1mb[0m|[7;1m [0m|[0;1mK[0m|[0;1mb[0m| |[0;1mr[0m|| 1
[32;1m[Board] [0m  -------------------
[32;1m[Board] [0m    a b c d e f g h
[32;1m[Board] [0m
[32;1m[Referee] [0mThis is the turn of the Black player...
8 [100m ♖ [43m   [100m   [43m ♕ [100m ♔ [43m ♗ [100m   [43m   [40m
7 [43m   [100m   [43m   [100m   [43m   [100m ♙ [43m ♙ [100m ♖ [40m
6 [100m ♗ [43m ♙ [100m ♘ [43m ♙ [100m   [43m ♘ [100m   [43m   [40m
5 [43m ♙ [100m   [43m ♙ [100m   [43m ♙ [100m   [43m   [100m   [40m
4 [100m ♟ [43m   [100m   [43m   [100m ♟ [43m   [100m   [43m ♟ [40m
3 [43m   [100m   [43m ♟ [100m   [43m   [100m ♟ [43m   [100m ♞ [40m
2 [100m   [43m ♟ [100m   [43m ♟ [100m   [43m   [100m ♟ [43m   [40m
1 [43m ♜ [100m ♞ [43m ♝ [100m   [43m ♚ [100m ♝ [43m   [100m ♜ [40m
   a  b  c  d  e  f  g  h  
[32;1m[Game] [0mPlayer's error code: 0
[32;1m[Game] [0mChecking move validity...
[32;1m[Board] [0mInitializing board...
[32;1m[Board] [0mLoading history file `championship/lizzie-iii-shallowcyan/history.csv`...
[32;1m[Board] [0mLoaded 19 move(s).
[32;1m[Board] [0mLoading move file `championship/lizzie-iii-shallowcyan/move.csv`...
[32;1m[Board] [0mBlack player is playing a6 to f1.
[32;1m[Board] [0m[5;1mBlack Bishop is taking White Bishop.[0m
[32;1m[Board] [0m
[32;1m[Board] [0m    a b c d e f g h 
[32;1m[Board] [0m  -------------------
[32;1m[Board] [0m8 ||[30;1mr[0m| |[7;1m [0m|[30;1mQ[0m|[30;1mK[0m|[30;1mb[0m|[7;1m [0m| || 8
[32;1m[Board] [0m  -------------------
[32;1m[Board] [0m7 || |[7;1m [0m| |[7;1m [0m| |[30;1mp[0m|[30;1mp[0m|[30;1mr[0m|| 7
[32;1m[Board] [0m  -------------------
[32;1m[Board] [0m6 ||[7;1m [0m|[30;1mp[0m|[30;1mk[0m|[30;1mp[0m|[7;1m [0m|[30;1mk[0m|[7;1m [0m| || 6
[32;1m[Board] [0m  -------------------
[32;1m[Board] [0m5 ||[30;1mp[0m|[7;1m [0m|[30;1mp[0m|[7;1m [0m|[30;1mp[0m|[7;1m [0m| |[7;1m [0m|| 5
[32;1m[Board] [0m  -------------------
[32;1m[Board] [0m4 ||[0;1mp[0m| |[7;1m [0m| |[0;1mp[0m| |[7;1m [0m|[0;1mp[0m|| 4
[32;1m[Board] [0m  -------------------
[32;1m[Board] [0m3 || |[7;1m [0m|[0;1mp[0m|[7;1m [0m| |[0;1mp[0m| |[0;1mk[0m|| 3
[32;1m[Board] [0m  -------------------
[32;1m[Board] [0m2 ||[7;1m [0m|[0;1mp[0m|[7;1m [0m|[0;1mp[0m|[7;1m [0m| |[0;1mp[0m| || 2
[32;1m[Board] [0m  -------------------
[32;1m[Board] [0m1 ||[0;1mr[0m|[0;1mk[0m|[0;1mb[0m|[7;1m [0m|[0;1mK[0m|[30;1mb[0m| |[0;1mr[0m|| 1
[32;1m[Board] [0m  -------------------
[32;1m[Board] [0m    a b c d e f g h
[32;1m[Board] [0m
[32;1m[Referee] [0mThis is the turn of the White player...
Input file: championship/lizzie-iii-shallowcyan/history.csv
Output file: championship/lizzie-iii-shallowcyan/move.csv
Turn of: white
Succesful move
c2c3
8 | R N B Q K B N R 
7 | P P P P P P P P 
6 | _ _ _ _ _ _ _ _ 
5 | _ _ _ _ _ _ _ _ 
4 | _ _ _ _ _ _ _ _ 
3 | _ _ P _ _ _ _ _ 
2 | P P _ P P P P P 
1 | R N B Q K B N R 
-------------------
  | A B C D E F G H 

Turn of: black
Succesful move
b7b6
8 | R N B Q K B N R 
7 | P _ P P P P P P 
6 | _ P _ _ _ _ _ _ 
5 | _ _ _ _ _ _ _ _ 
4 | _ _ _ _ _ _ _ _ 
3 | _ _ P _ _ _ _ _ 
2 | P P _ P P P P P 
1 | R N B Q K B N R 
-------------------
  | A B C D E F G H 

Turn of: white
Succesful move
a2a4
8 | R N B Q K B N R 
7 | P _ P P P P P P 
6 | _ P _ _ _ _ _ _ 
5 | _ _ _ _ _ _ _ _ 
4 | P _ _ _ _ _ _ _ 
3 | _ _ P _ _ _ _ _ 
2 | _ P _ P P P P P 
1 | R N B Q K B N R 
-------------------
  | A B C D E F G H 

Turn of: black
Succesful move
g8f6
8 | R N B Q K B _ R 
7 | P _ P P P P P P 
6 | _ P _ _ _ N _ _ 
5 | _ _ _ _ _ _ _ _ 
4 | P _ _ _ _ _ _ _ 
3 | _ _ P _ _ _ _ _ 
2 | _ P _ P P P P P 
1 | R N B Q K B N R 
-------------------
  | A B C D E F G H 

Turn of: white
Succesful move
d1b3
8 | R N B Q K B _ R 
7 | P _ P P P P P P 
6 | _ P _ _ _ N _ _ 
5 | _ _ _ _ _ _ _ _ 
4 | P _ _ _ _ _ _ _ 
3 | _ Q P _ _ _ _ _ 
2 | _ P _ P P P P P 
1 | R N B _ K B N R 
-------------------
  | A B C D E F G H 

Turn of: black
Succesful move
a7a5
8 | R N B Q K B _ R 
7 | _ _ P P P P P P 
6 | _ P _ _ _ N _ _ 
5 | P _ _ _ _ _ _ _ 
4 | P _ _ _ _ _ _ _ 
3 | _ Q P _ _ _ _ _ 
2 | _ P _ P P P P P 
1 | R N B _ K B N R 
-------------------
  | A B C D E F G H 

Turn of: white
Succesful move
f2f3
8 | R N B Q K B _ R 
7 | _ _ P P P P P P 
6 | _ P _ _ _ N _ _ 
5 | P _ _ _ _ _ _ _ 
4 | P _ _ _ _ _ _ _ 
3 | _ Q P _ _ P _ _ 
2 | _ P _ P P _ P P 
1 | R N B _ K B N R 
-------------------
  | A B C D E F G H 

Turn of: black
Succesful move
c7c5
8 | R N B Q K B _ R 
7 | _ _ _ P P P P P 
6 | _ P _ _ _ N _ _ 
5 | P _ P _ _ _ _ _ 
4 | P _ _ _ _ _ _ _ 
3 | _ Q P _ _ P _ _ 
2 | _ P _ P P _ P P 
1 | R N B _ K B N R 
-------------------
  | A B C D E F G H 

Turn of: white
Succesful move
b3d1
8 | R N B Q K B _ R 
7 | _ _ _ P P P P P 
6 | _ P _ _ _ N _ _ 
5 | P _ P _ _ _ _ _ 
4 | P _ _ _ _ _ _ _ 
3 | _ _ P _ _ P _ _ 
2 | _ P _ P P _ P P 
1 | R N B Q K B N R 
-------------------
  | A B C D E F G H 

Turn of: black
Succesful move
d7d6
8 | R N B Q K B _ R 
7 | _ _ _ _ P P P P 
6 | _ P _ P _ N _ _ 
5 | P _ P _ _ _ _ _ 
4 | P _ _ _ _ _ _ _ 
3 | _ _ P _ _ P _ _ 
2 | _ P _ P P _ P P 
1 | R N B Q K B N R 
-------------------
  | A B C D E F G H 

Turn of: white
Succesful move
d1c2
8 | R N B Q K B _ R 
7 | _ _ _ _ P P P P 
6 | _ P _ P _ N _ _ 
5 | P _ P _ _ _ _ _ 
4 | P _ _ _ _ _ _ _ 
3 | _ _ P _ _ P _ _ 
2 | _ P Q P P _ P P 
1 | R N B _ K B N R 
-------------------
  | A B C D E F G H 

Turn of: black
Succesful move
b8c6
8 | R _ B Q K B _ R 
7 | _ _ _ _ P P P P 
6 | _ P N P _ N _ _ 
5 | P _ P _ _ _ _ _ 
4 | P _ _ _ _ _ _ _ 
3 | _ _ P _ _ P _ _ 
2 | _ P Q P P _ P P 
1 | R N B _ K B N R 
-------------------
  | A B C D E F G H 

Turn of: white
Succesful move
c2h7
8 | R _ B Q K B _ R 
7 | _ _ _ _ P P P Q 
6 | _ P N P _ N _ _ 
5 | P _ P _ _ _ _ _ 
4 | P _ _ _ _ _ _ _ 
3 | _ _ P _ _ P _ _ 
2 | _ P _ P P _ P P 
1 | R N B _ K B N R 
-------------------
  | A B C D E F G H 

Turn of: black
Succesful move
h8h7
8 | R _ B Q K B _ _ 
7 | _ _ _ _ P P P R 
6 | _ P N P _ N _ _ 
5 | P _ P _ _ _ _ _ 
4 | P _ _ _ _ _ _ _ 
3 | _ _ P _ _ P _ _ 
2 | _ P _ P P _ P P 
1 | R N B _ K B N R 
-------------------
  | A B C D E F G H 

Turn of: white
Succesful move
e2e4
8 | R _ B Q K B _ _ 
7 | _ _ _ _ P P P R 
6 | _ P N P _ N _ _ 
5 | P _ P _ _ _ _ _ 
4 | P _ _ _ P _ _ _ 
3 | _ _ P _ _ P _ _ 
2 | _ P _ P _ _ P P 
1 | R N B _ K B N R 
-------------------
  | A B C D E F G H 

Turn of: black
Succesful move
c8a6
8 | R _ _ Q K B _ _ 
7 | _ _ _ _ P P P R 
6 | B P N P _ N _ _ 
5 | P _ P _ _ _ _ _ 
4 | P _ _ _ P _ _ _ 
3 | _ _ P _ _ P _ _ 
2 | _ P _ P _ _ P P 
1 | R N B _ K B N R 
-------------------
  | A B C D E F G H 

Turn of: white
Succesful move
h2h4
8 | R _ _ Q K B _ _ 
7 | _ _ _ _ P P P R 
6 | B P N P _ N _ _ 
5 | P _ P _ _ _ _ _ 
4 | P _ _ _ P _ _ P 
3 | _ _ P _ _ P _ _ 
2 | _ P _ P _ _ P _ 
1 | R N B _ K B N R 
-------------------
  | A B C D E F G H 

Turn of: black
Succesful move
e7e5
8 | R _ _ Q K B _ _ 
7 | _ _ _ _ _ P P R 
6 | B P N P _ N _ _ 
5 | P _ P _ P _ _ _ 
4 | P _ _ _ P _ _ P 
3 | _ _ P _ _ P _ _ 
2 | _ P _ P _ _ P _ 
1 | R N B _ K B N R 
-------------------
  | A B C D E F G H 

Turn of: white
Succesful move
g1h3
8 | R _ _ Q K B _ _ 
7 | _ _ _ _ _ P P R 
6 | B P N P _ N _ _ 
5 | P _ P _ P _ _ _ 
4 | P _ _ _ P _ _ P 
3 | _ _ P _ _ P _ N 
2 | _ P _ P _ _ P _ 
1 | R N B _ K B _ R 
-------------------
  | A B C D E F G H 

Turn of: black
Succesful move
a6f1
8 | R _ _ Q K B _ _ 
7 | _ _ _ _ _ P P R 
6 | _ P N P _ N _ _ 
5 | P _ P _ P _ _ _ 
4 | P _ _ _ P _ _ P 
3 | _ _ P _ _ P _ N 
2 | _ P _ P _ _ P _ 
1 | R N B _ K B _ R 
-------------------
  | A B C D E F G H 

We are playing as White
Move history:
c2c3
b7b6
a2a4
g8f6
d1b3
a7a5
f2f3
c7c5
b3d1
d7d6
d1c2
b8c6
c2h7
h8h7
e2e4
c8a6
h2h4
e7e5
g1h3
a6f1
8 | R _ _ Q K B _ _ 
7 | _ _ _ _ _ P P R 
6 | _ P N P _ N _ _ 
5 | P _ P _ P _ _ _ 
4 | P _ _ _ P _ _ P 
3 | _ _ P _ _ P _ N 
2 | _ P _ P _ _ P _ 
1 | R N B _ K B _ R 
-------------------
  | A B C D E F G H 

It is white's turn to play.
AI's move: g2g4
Move written: g2g4
[32;1m[Game] [0mPlayer's error code: 0
[32;1m[Game] [0mChecking move validity...
[32;1m[Board] [0mInitializing board...
[32;1m[Board] [0mLoading history file `championship/lizzie-iii-shallowcyan/history.csv`...
[32;1m[Board] [0mLoaded 20 move(s).
[32;1m[Board] [0mLoading move file `championship/lizzie-iii-shallowcyan/move.csv`...
[32;1m[Board] [0mWhite player is playing g2 to g4.
[32;1m[Board] [0m
[32;1m[Board] [0m    a b c d e f g h 
[32;1m[Board] [0m  -------------------
[32;1m[Board] [0m8 ||[30;1mr[0m| |[7;1m [0m|[30;1mQ[0m|[30;1mK[0m|[30;1mb[0m|[7;1m [0m| || 8
[32;1m[Board] [0m  -------------------
[32;1m[Board] [0m7 || |[7;1m [0m| |[7;1m [0m| |[30;1mp[0m|[30;1mp[0m|[30;1mr[0m|| 7
[32;1m[Board] [0m  -------------------
[32;1m[Board] [0m6 ||[7;1m [0m|[30;1mp[0m|[30;1mk[0m|[30;1mp[0m|[7;1m [0m|[30;1mk[0m|[7;1m [0m| || 6
[32;1m[Board] [0m  -------------------
[32;1m[Board] [0m5 ||[30;1mp[0m|[7;1m [0m|[30;1mp[0m|[7;1m [0m|[30;1mp[0m|[7;1m [0m| |[7;1m [0m|| 5
[32;1m[Board] [0m  -------------------
[32;1m[Board] [0m4 ||[0;1mp[0m| |[7;1m [0m| |[0;1mp[0m| |[0;1mp[0m|[0;1mp[0m|| 4
[32;1m[Board] [0m  -------------------
[32;1m[Board] [0m3 || |[7;1m [0m|[0;1mp[0m|[7;1m [0m| |[0;1mp[0m| |[0;1mk[0m|| 3
[32;1m[Board] [0m  -------------------
[32;1m[Board] [0m2 ||[7;1m [0m|[0;1mp[0m|[7;1m [0m|[0;1mp[0m|[7;1m [0m| |[7;1m [0m| || 2
[32;1m[Board] [0m  -------------------
[32;1m[Board] [0m1 ||[0;1mr[0m|[0;1mk[0m|[0;1mb[0m|[7;1m [0m|[0;1mK[0m|[30;1mb[0m| |[0;1mr[0m|| 1
[32;1m[Board] [0m  -------------------
[32;1m[Board] [0m    a b c d e f g h
[32;1m[Board] [0m
[32;1m[Referee] [0mThis is the turn of the Black player...
8 [100m ♖ [43m   [100m   [43m ♕ [100m ♔ [43m ♗ [100m   [43m   [40m
7 [43m   [100m   [43m   [100m   [43m   [100m ♙ [43m ♙ [100m ♖ [40m
6 [100m   [43m ♙ [100m ♘ [43m ♙ [100m   [43m ♘ [100m   [43m   [40m
5 [43m ♙ [100m   [43m ♙ [100m   [43m ♙ [100m   [43m   [100m   [40m
4 [100m ♟ [43m   [100m   [43m   [100m ♟ [43m   [100m ♟ [43m ♟ [40m
3 [43m   [100m   [43m ♟ [100m   [43m   [100m ♟ [43m   [100m ♞ [40m
2 [100m   [43m ♟ [100m   [43m ♟ [100m   [43m   [100m   [43m   [40m
1 [43m ♜ [100m ♞ [43m ♝ [100m   [43m ♚ [100m ♗ [43m   [100m ♜ [40m
   a  b  c  d  e  f  g  h  
[32;1m[Game] [0mPlayer's error code: 0
[32;1m[Game] [0mChecking move validity...
[32;1m[Board] [0mInitializing board...
[32;1m[Board] [0mLoading history file `championship/lizzie-iii-shallowcyan/history.csv`...
[32;1m[Board] [0mLoaded 21 move(s).
[32;1m[Board] [0mLoading move file `championship/lizzie-iii-shallowcyan/move.csv`...
[32;1m[Board] [0mBlack player is playing f1 to g2.
[32;1m[Board] [0m
[32;1m[Board] [0m    a b c d e f g h 
[32;1m[Board] [0m  -------------------
[32;1m[Board] [0m8 ||[30;1mr[0m| |[7;1m [0m|[30;1mQ[0m|[30;1mK[0m|[30;1mb[0m|[7;1m [0m| || 8
[...]
  | A B C D E F G H 

Turn of: white
Succesful move
f4c1
8 | R _ _ _ K B _ _ 
7 | _ _ _ N _ P P R 
6 | _ P N P _ _ _ P 
5 | P _ _ _ P _ _ _ 
4 | P _ _ P P _ P _ 
3 | N _ P _ _ B _ _ 
2 | _ P _ _ _ _ Q _ 
1 | R _ B _ K _ _ _ 
-------------------
  | A B C D E F G H 

Turn of: black
Succesful move
d4c3
8 | R _ _ _ K B _ _ 
7 | _ _ _ N _ P P R 
6 | _ P N P _ _ _ P 
5 | P _ _ _ P _ _ _ 
4 | P _ _ _ P _ P _ 
3 | N _ P _ _ B _ _ 
2 | _ P _ _ _ _ Q _ 
1 | R _ B _ K _ _ _ 
-------------------
  | A B C D E F G H 

We are playing as White
Move history:
c2c3
b7b6
a2a4
g8f6
d1b3
a7a5
f2f3
c7c5
b3d1
d7d6
d1c2
b8c6
c2h7
h8h7
e2e4
c8a6
h2h4
e7e5
g1h3
a6f1
g2g4
f1g2
h4h5
g2h1
b1a3
f6d7
h5h6
d8h4
e1f1
h4h3
f1e1
h1f3
d2d4
h3g2
c1f4
c5d4
f4c1
d4c3
8 | R _ _ _ K B _ _ 
7 | _ _ _ N _ P P R 
6 | _ P N P _ _ _ P 
5 | P _ _ _ P _ _ _ 
4 | P _ _ _ P _ P _ 
3 | N _ P _ _ B _ _ 
2 | _ P _ _ _ _ Q _ 
1 | R _ B _ K _ _ _ 
-------------------
  | A B C D E F G H 

It is white's turn to play.
AI's move: h6g7
Move written: h6g7
[32;1m[Game] [0mPlayer's error code: 0
[32;1m[Game] [0mChecking move validity...
[32;1m[Board] [0mInitializing board...
[32;1m[Board] [0mLoading history file `championship/lizzie-iii-shallowcyan/history.csv`...
[32;1m[Board] [0mLoaded 38 move(s).
[32;1m[Board] [0mLoading move file `championship/lizzie-iii-shallowcyan/move.csv`...
[32;1m[Board] [0mWhite player is playing h6 to g7.
[32;1m[Board] [0m[5;1mWhite Pawn is taking Black Pawn.[0m
[32;1m[Board] [0m
[32;1m[Board] [0m    a b c d e f g h 
[32;1m[Board] [0m  -------------------
[32;1m[Board] [0m8 ||[30;1mr[0m| |[7;1m [0m| |[30;1mK[0m|[30;1mb[0m|[7;1m [0m| || 8
[32;1m[Board] [0m  -------------------
[32;1m[Board] [0m7 || |[7;1m [0m| |[30;1mk[0m| |[30;1mp[0m|[0;1mp[0m|[30;1mr[0m|| 7
[32;1m[Board] [0m  -------------------
[32;1m[Board] [0m6 ||[7;1m [0m|[30;1mp[0m|[30;1mk[0m|[30;1mp[0m|[7;1m [0m| |[7;1m [0m| || 6
[32;1m[Board] [0m  -------------------
[32;1m[Board] [0m5 ||[30;1mp[0m|[7;1m [0m| |[7;1m [0m|[30;1mp[0m|[7;1m [0m| |[7;1m [0m|| 5
[32;1m[Board] [0m  -------------------
[32;1m[Board] [0m4 ||[0;1mp[0m| |[7;1m [0m| |[0;1mp[0m| |[0;1mp[0m| || 4
[32;1m[Board] [0m  -------------------
[32;1m[Board] [0m3 ||[0;1mk[0m|[7;1m [0m|[30;1mp[0m|[7;1m [0m| |[30;1mb[0m| |[7;1m [0m|| 3
[32;1m[Board] [0m  -------------------
[32;1m[Board] [0m2 ||[7;1m [0m|[0;1mp[0m|[7;1m [0m| |[7;1m [0m| |[30;1mQ[0m| || 2
[32;1m[Board] [0m  -------------------
[32;1m[Board] [0m1 ||[0;1mr[0m|[7;1m [0m|[0;1mb[0m|[7;1m [0m|[0;1mK[0m|[7;1m [0m| |[7;1m [0m|| 1
[32;1m[Board] [0m  -------------------
[32;1m[Board] [0m    a b c d e f g h
[32;1m[Board] [0m
[32;1m[Referee] [0mThis is the turn of the Black player...
8 [100m ♖ [43m   [100m   [43m   [100m ♔ [43m ♗ [100m   [43m   [40m
7 [43m   [100m   [43m   [100m ♘ [43m   [100m ♙ [43m ♟ [100m ♖ [40m
6 [100m   [43m ♙ [100m ♘ [43m ♙ [100m   [43m   [100m   [43m   [40m
5 [43m ♙ [100m   [43m   [100m   [43m ♙ [100m   [43m   [100m   [40m
4 [100m ♟ [43m   [100m   [43m   [100m ♟ [43m   [100m ♟ [43m   [40m
3 [43m ♞ [100m   [43m ♙ [100m   [43m   [100m ♗ [43m   [100m   [40m
2 [100m   [43m ♟ [100m   [43m   [100m   [43m   [100m ♕ [43m   [40m
1 [43m ♜ [100m   [43m ♝ [100m   [43m ♚ [100m   [43m   [100m   [40m
   a  b  c  d  e  f  g  h  
[32;1m[Game] [0mPlayer's error code: 0
[32;1m[Game] [0mChecking move validity...
[32;1m[Board] [0mInitializing board...
[32;1m[Board] [0mLoading history file `championship/lizzie-iii-shallowcyan/history.csv`...
[32;1m[Board] [0mLoaded 39 move(s).
[32;1m[Board] [0mLoading move file `championship/lizzie-iii-shallowcyan/move.csv`...
[32;1m[Board] [0mBlack player is playing f8 to g7.
[32;1m[Board] [0m[5;1mBlack Bishop is taking White Pawn.[0m
[32;1m[Board] [0m
[32;1m[Board] [0m    a b c d e f g h 
[32;1m[Board] [0m  -------------------
[32;1m[Board] [0m8 ||[30;1mr[0m| |[7;1m [0m| |[30;1mK[0m| |[7;1m [0m| || 8
[32;1m[Board] [0m  -------------------
[32;1m[Board] [0m7 || |[7;1m [0m| |[30;1mk[0m| |[30;1mp[0m|[30;1mb[0m|[30;1mr[0m|| 7
[32;1m[Board] [0m  -------------------
[32;1m[Board] [0m6 ||[7;1m [0m|[30;1mp[0m|[30;1mk[0m|[30;1mp[0m|[7;1m [0m| |[7;1m [0m| || 6
[32;1m[Board] [0m  -------------------
[32;1m[Board] [0m5 ||[30;1mp[0m|[7;1m [0m| |[7;1m [0m|[30;1mp[0m|[7;1m [0m| |[7;1m [0m|| 5
[32;1m[Board] [0m  -------------------
[32;1m[Board] [0m4 ||[0;1mp[0m| |[7;1m [0m| |[0;1mp[0m| |[0;1mp[0m| || 4
[32;1m[Board] [0m  -------------------
[32;1m[Board] [0m3 ||[0;1mk[0m|[7;1m [0m|[30;1mp[0m|[7;1m [0m| |[30;1mb[0m| |[7;1m [0m|| 3
[32;1m[Board] [0m  -------------------
[32;1m[Board] [0m2 ||[7;1m [0m|[0;1mp[0m|[7;1m [0m| |[7;1m [0m| |[30;1mQ[0m| || 2
[32;1m[Board] [0m  -------------------
[32;1m[Board] [0m1 ||[0;1mr[0m|[7;1m [0m|[0;1mb[0m|[7;1m [0m|[0;1mK[0m|[7;1m [0m| |[7;1m [0m|| 1
[32;1m[Board] [0m  -------------------
[32;1m[Board] [0m    a b c d e f g h
[32;1m[Board] [0m
[32;1m[Referee] [0mThis is the turn of the White player...
Input file: championship/lizzie-iii-shallowcyan/history.csv
Output file: championship/lizzie-iii-shallowcyan/move.csv
Turn of: white
Succesful move
c2c3
8 | R N B Q K B N R 
7 | P P P P P P P P 
6 | _ _ _ _ _ _ _ _ 
5 | _ _ _ _ _ _ _ _ 
4 | _ _ _ _ _ _ _ _ 
3 | _ _ P _ _ _ _ _ 
2 | P P _ P P P P P 
1 | R N B Q K B N R 
-------------------
  | A B C D E F G H 

Turn of: black
Succesful move
b7b6
8 | R N B Q K B N R 
7 | P _ P P P P P P 
6 | _ P _ _ _ _ _ _ 
5 | _ _ _ _ _ _ _ _ 
4 | _ _ _ _ _ _ _ _ 
3 | _ _ P _ _ _ _ _ 
2 | P P _ P P P P P 
1 | R N B Q K B N R 
-------------------
  | A B C D E F G H 

Turn of: white
Succesful move
a2a4
8 | R N B Q K B N R 
7 | P _ P P P P P P 
6 | _ P _ _ _ _ _ _ 
5 | _ _ _ _ _ _ _ _ 
4 | P _ _ _ _ _ _ _ 
3 | _ _ P _ _ _ _ _ 
2 | _ P _ P P P P P 
1 | R N B Q K B N R 
-------------------
  | A B C D E F G H 

Turn of: black
Succesful move
g8f6
8 | R N B Q K B _ R 
7 | P _ P P P P P P 
6 | _ P _ _ _ N _ _ 
5 | _ _ _ _ _ _ _ _ 
4 | P _ _ _ _ _ _ _ 
3 | _ _ P _ _ _ _ _ 
2 | _ P _ P P P P P 
1 | R N B Q K B N R 
-------------------
  | A B C D E F G H 

Turn of: white
Succesful move
d1b3
8 | R N B Q K B _ R 
7 | P _ P P P P P P 
6 | _ P _ _ _ N _ _ 
5 | _ _ _ _ _ _ _ _ 
4 | P _ _ _ _ _ _ _ 
3 | _ Q P _ _ _ _ _ 
2 | _ P _ P P P P P 
1 | R N B _ K B N R 
-------------------
  | A B C D E F G H 

Turn of: black
Succesful move
a7a5
8 | R N B Q K B _ R 
7 | _ _ P P P P P P 
6 | _ P _ _ _ N _ _ 
5 | P _ _ _ _ _ _ _ 
4 | P _ _ _ _ _ _ _ 
3 | _ Q P _ _ _ _ _ 
2 | _ P _ P P P P P 
1 | R N B _ K B N R 
-------------------
  | A B C D E F G H 

Turn of: white
Succesful move
f2f3
8 | R N B Q K B _ R 
7 | _ _ P P P P P P 
6 | _ P _ _ _ N _ _ 
5 | P _ _ _ _ _ _ _ 
4 | P _ _ _ _ _ _ _ 
3 | _ Q P _ _ P _ _ 
2 | _ P _ P P _ P P 
1 | R N B _ K B N R 
-------------------
  | A B C D E F G H 

Turn of: black
Succesful move
c7c5
8 | R N B Q K B _ R 
7 | _ _ _ P P P P P 
6 | _ P _ _ _ N _ _ 
5 | P _ P _ _ _ _ _ 
4 | P _ _ _ _ _ _ _ 
3 | _ Q P _ _ P _ _ 
2 | _ P _ P P _ P P 
1 | R N B _ K B N R 
-------------------
  | A B C D E F G H 

Turn of: white
Succesful move
b3d1
8 | R N B Q K B _ R 
7 | _ _ _ P P P P P 
6 | _ P _ _ _ N _ _ 
5 | P _ P _ _ _ _ _ 
4 | P _ _ _ _ _ _ _ 
3 | _ _ P _ _ P _ _ 
2 | _ P _ P P _ P P 
1 | R N B Q K B N R 
-------------------
  | A B C D E F G H 

Turn of: black
Succesful move
d7d6
8 | R N B Q K B _ R 
7 | _ _ _ _ P P P P 
6 | _ P _ P _ N _ _ 
5 | P _ P _ _ _ _ _ 
4 | P _ _ _ _ _ _ _ 
3 | _ _ P _ _ P _ _ 
2 | _ P _ P P _ P P 
1 | R N B Q K B N R 
-------------------
  | A B C D E F G H 

Turn of: white
Succesful move
d1c2
8 | R N B Q K B _ R 
7 | _ _ _ _ P P P P 
6 | _ P _ P _ N _ _ 
5 | P _ P _ _ _ _ _ 
4 | P _ _ _ _ _ _ _ 
3 | _ _ P _ _ P _ _ 
2 | _ P Q P P _ P P 
1 | R N B _ K B N R 
-------------------
  | A B C D E F G H 

Turn of: black
Succesful move
b8c6
8 | R _ B Q K B _ R 
7 | _ _ _ _ P P P P 
6 | _ P N P _ N _ _ 
5 | P _ P _ _ _ _ _ 
4 | P _ _ _ _ _ _ _ 
3 | _ _ P _ _ P _ _ 
2 | _ P Q P P _ P P 
1 | R N B _ K B N R 
-------------------
  | A B C D E F G H 

Turn of: white
Succesful move
c2h7
8 | R _ B Q K B _ R 
7 | _ _ _ _ P P P Q 
6 | _ P N P _ N _ _ 
5 | P _ P _ _ _ _ _ 
4 | P _ _ _ _ _ _ _ 
3 | _ _ P _ _ P _ _ 
2 | _ P _ P P _ P P 
1 | R N B _ K B N R 
-------------------
  | A B C D E F G H 

Turn of: black
Succesful move
h8h7
8 | R _ B Q K B _ _ 
7 | _ _ _ _ P P P R 
6 | _ P N P _ N _ _ 
5 | P _ P _ _ _ _ _ 
4 | P _ _ _ _ _ _ _ 
3 | _ _ P _ _ P _ _ 
2 | _ P _ P P _ P P 
1 | R N B _ K B N R 
-------------------
  | A B C D E F G H 

Turn of: white
Succesful move
e2e4
8 | R _ B Q K B _ _ 
7 | _ _ _ _ P P P R 
6 | _ P N P _ N _ _ 
5 | P _ P _ _ _ _ _ 
4 | P _ _ _ P _ _ _ 
3 | _ _ P _ _ P _ _ 
2 | _ P _ P _ _ P P 
1 | R N B _ K B N R 
-------------------
  | A B C D E F G H 

Turn of: black
Succesful move
c8a6
8 | R _ _ Q K B _ _ 
7 | _ _ _ _ P P P R 
6 | B P N P _ N _ _ 
5 | P _ P _ _ _ _ _ 
4 | P _ _ _ P _ _ _ 
3 | _ _ P _ _ P _ _ 
2 | _ P _ P _ _ P P 
1 | R N B _ K B N R 
-------------------
  | A B C D E F G H 

Turn of: white
Succesful move
h2h4
8 | R _ _ Q K B _ _ 
7 | _ _ _ _ P P P R 
6 | B P N P _ N _ _ 
5 | P _ P _ _ _ _ _ 
4 | P _ _ _ P _ _ P 
3 | _ _ P _ _ P _ _ 
2 | _ P _ P _ _ P _ 
1 | R N B _ K B N R 
-------------------
  | A B C D E F G H 

Turn of: black
Succesful move
e7e5
8 | R _ _ Q K B _ _ 
7 | _ _ _ _ _ P P R 
6 | B P N P _ N _ _ 
5 | P _ P _ P _ _ _ 
4 | P _ _ _ P _ _ P 
3 | _ _ P _ _ P _ _ 
2 | _ P _ P _ _ P _ 
1 | R N B _ K B N R 
-------------------
  | A B C D E F G H 

Turn of: white
Succesful move
g1h3
8 | R _ _ Q K B _ _ 
7 | _ _ _ _ _ P P R 
6 | B P N P _ N _ _ 
5 | P _ P _ P _ _ _ 
4 | P _ _ _ P _ _ P 
3 | _ _ P _ _ P _ N 
2 | _ P _ P _ _ P _ 
1 | R N B _ K B _ R 
-------------------
  | A B C D E F G H 

Turn of: black
Succesful move
a6f1
8 | R _ _ Q K B _ _ 
7 | _ _ _ _ _ P P R 
6 | _ P N P _ N _ _ 
5 | P _ P _ P _ _ _ 
4 | P _ _ _ P _ _ P 
3 | _ _ P _ _ P _ N 
2 | _ P _ P _ _ P _ 
1 | R N B _ K B _ R 
-------------------
  | A B C D E F G H 

Turn of: white
Succesful move
g2g4
8 | R _ _ Q K B _ _ 
7 | _ _ _ _ _ P P R 
6 | _ P N P _ N _ _ 
5 | P _ P _ P _ _ _ 
4 | P _ _ _ P _ P P 
3 | _ _ P _ _ P _ N 
2 | _ P _ P _ _ _ _ 
1 | R N B _ K B _ R 
-------------------
  | A B C D E F G H 

Turn of: black
Succesful move
f1g2
8 | R _ _ Q K B _ _ 
7 | _ _ _ _ _ P P R 
6 | _ P N P _ N _ _ 
5 | P _ P _ P _ _ _ 
4 | P _ _ _ P _ P P 
3 | _ _ P _ _ P _ N 
2 | _ P _ P _ _ B _ 
1 | R N B _ K _ _ R 
-------------------
  | A B C D E F G H 

Turn of: white
Succesful move
h4h5
8 | R _ _ Q K B _ _ 
7 | _ _ _ _ _ P P R 
6 | _ P N P _ N _ _ 
5 | P _ P _ P _ _ P 
4 | P _ _ _ P _ P _ 
3 | _ _ P _ _ P _ N 
2 | _ P _ P _ _ B _ 
1 | R N B _ K _ _ R 
-------------------
  | A B C D E F G H 

Turn of: black
Succesful move
g2h1
8 | R _ _ Q K B _ _ 
7 | _ _ _ _ _ P P R 
6 | _ P N P _ N _ _ 
5 | P _ P _ P _ _ P 
4 | P _ _ _ P _ P _ 
3 | _ _ P _ _ P _ N 
2 | _ P _ P _ _ _ _ 
1 | R N B _ K _ _ B 
-------------------
  | A B C D E F G H 

Turn of: white
Succesful move
b1a3
8 | R _ _ Q K B _ _ 
7 | _ _ _ _ _ P P R 
6 | _ P N P _ N _ _ 
5 | P _ P _ P _ _ P 
4 | P _ _ _ P _ P _ 
3 | N _ P _ _ P _ N 
2 | _ P _ P _ _ _ _ 
1 | R _ B _ K _ _ B 
-------------------
  | A B C D E F G H 

Turn of: black
Succesful move
f6d7
8 | R _ _ Q K B _ _ 
7 | _ _ _ N _ P P R 
6 | _ P N P _ _ _ _ 
5 | P _ P _ P _ _ P 
4 | P _ _ _ P _ P _ 
3 | N _ P _ _ P _ N 
2 | _ P _ P _ _ _ _ 
1 | R _ B _ K _ _ B 
-------------------
  | A B C D E F G H 

Turn of: white
Succesful move
h5h6
8 | R _ _ Q K B _ _ 
7 | _ _ _ N _ P P R 
6 | _ P N P _ _ _ P 
5 | P _ P _ P _ _ _ 
4 | P _ _ _ P _ P _ 
3 | N _ P _ _ P _ N 
2 | _ P _ P _ _ _ _ 
1 | R _ B _ K _ _ B 
-------------------
  | A B C D E F G H 

Turn of: black
Succesful move
d8h4
8 | R _ _ _ K B _ _ 
7 | _ _ _ N _ P P R 
6 | _ P N P _ _ _ P 
5 | P _ P _ P _ _ _ 
4 | P _ _ _ P _ P Q 
3 | N _ P _ _ P _ N 
2 | _ P _ P _ _ _ _ 
1 | R _ B _ K _ _ B 
-------------------
  | A B C D E F G H 

Turn of: white
Succesful move
e1f1
8 | R _ _ _ K B _ _ 
7 | _ _ _ N _ P P R 
6 | _ P N P _ _ _ P 
5 | P _ P _ P _ _ _ 
4 | P _ _ _ P _ P Q 
3 | N _ P _ _ P _ N 
2 | _ P _ P _ _ _ _ 
1 | R _ B _ _ K _ B 
-------------------
  | A B C D E F G H 

Turn of: black
Succesful move
h4h3
8 | R _ _ _ K B _ _ 
7 | _ _ _ N _ P P R 
6 | _ P N P _ _ _ P 
5 | P _ P _ P _ _ _ 
4 | P _ _ _ P _ P _ 
3 | N _ P _ _ P _ Q 
2 | _ P _ P _ _ _ _ 
1 | R _ B _ _ K _ B 
-------------------
  | A B C D E F G H 

Turn of: white
Succesful move
f1e1
8 | R _ _ _ K B _ _ 
7 | _ _ _ N _ P P R 
6 | _ P N P _ _ _ P 
5 | P _ P _ P _ _ _ 
4 | P _ _ _ P _ P _ 
3 | N _ P _ _ P _ Q 
2 | _ P _ P _ _ _ _ 
1 | R _ B _ K _ _ B 
-------------------
  | A B C D E F G H 

Turn of: black
Succesful move
h1f3
8 | R _ _ _ K B _ _ 
7 | _ _ _ N _ P P R 
6 | _ P N P _ _ _ P 
5 | P _ P _ P _ _ _ 
4 | P _ _ _ P _ P _ 
3 | N _ P _ _ B _ Q 
2 | _ P _ P _ _ _ _ 
1 | R _ B _ K _ _ _ 
-------------------
  | A B C D E F G H 

Turn of: white
Succesful move
d2d4
8 | R _ _ _ K B _ _ 
7 | _ _ _ N _ P P R 
6 | _ P N P _ _ _ P 
5 | P _ P _ P _ _ _ 
4 | P _ _ P P _ P _ 
3 | N _ P _ _ B _ Q 
2 | _ P _ _ _ _ _ _ 
1 | R _ B _ K _ _ _ 
-------------------
  | A B C D E F G H 

Turn of: black
Succesful move
h3g2
8 | R _ _ _ K B _ _ 
7 | _ _ _ N _ P P R 
6 | _ P N P _ _ _ P 
5 | P _ P _ P _ _ _ 
4 | P _ _ P P _ P _ 
3 | N _ P _ _ B _ _ 
2 | _ P _ _ _ _ Q _ 
1 | R _ B _ K _ _ _ 
-------------------
  | A B C D E F G H 

Turn of: white
Succesful move
c1f4
8 | R _ _ _ K B _ _ 
7 | _ _ _ N _ P P R 
6 | _ P N P _ _ _ P 
5 | P _ P _ P _ _ _ 
4 | P _ _ P P B P _ 
3 | N _ P _ _ B _ _ 
2 | _ P _ _ _ _ Q _ 
1 | R _ _ _ K _ _ _ 
-------------------
  | A B C D E F G H 

Turn of: black
Succesful move
c5d4
8 | R _ _ _ K B _ _ 
7 | _ _ _ N _ P P R 
6 | _ P N P _ _ _ P 
5 | P _ _ _ P _ _ _ 
4 | P _ _ P P B P _ 
3 | N _ P _ _ B _ _ 
2 | _ P _ _ _ _ Q _ 
1 | R _ _ _ K _ _ _ 
-------------------
  | A B C D E F G H 

Turn of: white
Succesful move
f4c1
8 | R _ _ _ K B _ _ 
7 | _ _ _ N _ P P R 
6 | _ P N P _ _ _ P 
5 | P _ _ _ P _ _ _ 
4 | P _ _ P P _ P _ 
3 | N _ P _ _ B _ _ 
2 | _ P _ _ _ _ Q _ 
1 | R _ B _ K _ _ _ 
-------------------
  | A B C D E F G H 

Turn of: black
Succesful move
d4c3
8 | R _ _ _ K B _ _ 
7 | _ _ _ N _ P P R 
6 | _ P N P _ _ _ P 
5 | P _ _ _ P _ _ _ 
4 | P _ _ _ P _ P _ 
3 | N _ P _ _ B _ _ 
2 | _ P _ _ _ _ Q _ 
1 | R _ B _ K _ _ _ 
-------------------
  | A B C D E F G H 

Turn of: white
Succesful move
h6g7
8 | R _ _ _ K B _ _ 
7 | _ _ _ N _ P P R 
6 | _ P N P _ _ _ _ 
5 | P _ _ _ P _ _ _ 
4 | P _ _ _ P _ P _ 
3 | N _ P _ _ B _ _ 
2 | _ P _ _ _ _ Q _ 
1 | R _ B _ K _ _ _ 
-------------------
  | A B C D E F G H 

Turn of: black
Succesful move
f8g7
8 | R _ _ _ K _ _ _ 
7 | _ _ _ N _ P B R 
6 | _ P N P _ _ _ _ 
5 | P _ _ _ P _ _ _ 
4 | P _ _ _ P _ P _ 
3 | N _ P _ _ B _ _ 
2 | _ P _ _ _ _ Q _ 
1 | R _ B _ K _ _ _ 
-------------------
  | A B C D E F G H 

We are playing as White
Move history:
c2c3
b7b6
a2a4
g8f6
d1b3
a7a5
f2f3
c7c5
b3d1
d7d6
d1c2
b8c6
c2h7
h8h7
e2e4
c8a6
h2h4
e7e5
g1h3
a6f1
g2g4
f1g2
h4h5
g2h1
b1a3
f6d7
h5h6
d8h4
e1f1
h4h3
f1e1
h1f3
d2d4
h3g2
c1f4
c5d4
f4c1
d4c3
h6g7
f8g7
8 | R _ _ _ K _ _ _ 
7 | _ _ _ N _ P B R 
6 | _ P N P _ _ _ _ 
5 | P _ _ _ P _ _ _ 
4 | P _ _ _ P _ P _ 
3 | N _ P _ _ B _ _ 
2 | _ P _ _ _ _ Q _ 
1 | R _ B _ K _ _ _ 
-------------------
  | A B C D E F G H 

It is white's turn to play.
AI's move: a3b5
Move written: a3b5
[32;1m[Game] [0mPlayer's error code: 0
[32;1m[Game] [0mChecking move validity...
[32;1m[Board] [0mInitializing board...
[32;1m[Board] [0mLoading history file `championship/lizzie-iii-shallowcyan/history.csv`...
[32;1m[Board] [0mLoaded 40 move(s).
[32;1m[Board] [0mLoading move file `championship/lizzie-iii-shallowcyan/move.csv`...
[32;1m[Board] [0mWhite player is playing a3 to b5.
[32;1m[Board] [0m
[32;1m[Board] [0m    a b c d e f g h 
[32;1m[Board] [0m  -------------------
[32;1m[Board] [0m8 ||[30;1mr[0m| |[7;1m [0m| |[30;1mK[0m| |[7;1m [0m| || 8
[32;1m[Board] [0m  -------------------
[32;1m[Board] [0m7 || |[7;1m [0m| |[30;1mk[0m| |[30;1mp[0m|[30;1mb[0m|[30;1mr[0m|| 7
[32;1m[Board] [0m  -------------------
[32;1m[Board] [0m6 ||[7;1m [0m|[30;1mp[0m|[30;1mk[0m|[30;1mp[0m|[7;1m [0m| |[7;1m [0m| || 6
[32;1m[Board] [0m  -------------------
[32;1m[Board] [0m5 ||[30;1mp[0m|[0;1mk[0m| |[7;1m [0m|[30;1mp[0m|[7;1m [0m| |[7;1m [0m|| 5
[32;1m[Board] [0m  -------------------
[32;1m[Board] [0m4 ||[0;1mp[0m| |[7;1m [0m| |[0;1mp[0m| |[0;1mp[0m| || 4
[32;1m[Board] [0m  -------------------
[32;1m[Board] [0m3 || |[7;1m [0m|[30;1mp[0m|[7;1m [0m| |[30;1mb[0m| |[7;1m [0m|| 3
[32;1m[Board] [0m  -------------------
[32;1m[Board] [0m2 ||[7;1m [0m|[0;1mp[0m|[7;1m [0m| |[7;1m [0m| |[30;1mQ[0m| || 2
[32;1m[Board] [0m  -------------------
[32;1m[Board] [0m1 ||[0;1mr[0m|[7;1m [0m|[0;1mb[0m|[7;1m [0m|[0;1mK[0m|[7;1m [0m| |[7;1m [0m|| 1
[32;1m[Board] [0m  -------------------
[32;1m[Board] [0m    a b c d e f g h
[32;1m[Board] [0m
[32;1m[Referee] [0mThis is the turn of the Black player...
8 [100m ♖ [43m   [100m   [43m   [100m ♔ [43m   [100m   [43m   [40m
7 [43m   [100m   [43m   [100m ♘ [43m   [100m ♙ [43m ♗ [100m ♖ [40m
6 [100m   [43m ♙ [100m ♘ [43m ♙ [100m   [43m   [100m   [43m   [40m
5 [43m ♙ [100m ♞ [43m   [100m   [43m ♙ [100m   [43m   [100m   [40m
4 [100m ♟ [43m   [100m   [43m   [100m ♟ [43m   [100m ♟ [43m   [40m
3 [43m   [100m   [43m ♙ [100m   [43m   [100m ♗ [43m   [100m   [40m
2 [100m   [43m ♟ [100m   [43m   [100m   [43m   [100m ♕ [43m   [40m
1 [43m ♜ [100m   [43m ♝ [100m   [43m ♚ [100m   [43m   [100m   [40m
   a  b  c  d  e  f  g  h  
[32;1m[Game] [0mPlayer's error code: 0
[32;1m[Game] [0mChecking move validity...
[32;1m[Board] [0mInitializing board...
[32;1m[Board] [0mLoading history file `championship/lizzie-iii-shallowcyan/history.csv`...
[32;1m[Board] [0mLoaded 41 move(s).
[32;1m[Board] [0mLoading move file `championship/lizzie-iii-shallowcyan/move.csv`...
[32;1m[Board] [0mBlack player is playing h7 to h1.
[32;1m[Board] [0m
[32;1m[Board] [0m    a b c d e f g h 
[32;1m[Board] [0m  -------------------
[32;1m[Board] [0m8 ||[30;1mr[0m| |[7;1m [0m| |[30;1mK[0m| |[7;1m [0m| || 8
[32;1m[Board] [0m  -------------------
[32;1m[Board] [0m7 || |[7;1m [0m| |[30;1mk[0m| |[30;1mp[0m|[30;1mb[0m|[7;1m [0m|| 7
[32;1m[Board] [0m  -------------------
[32;1m[Board] [0m6 ||[7;1m [0m|[30;1mp[0m|[30;1mk[0m|[30;1mp[0m|[7;1m [0m| |[7;1m [0m| || 6
[32;1m[Board] [0m  -------------------
[32;1m[Board] [0m5 ||[30;1mp[0m|[0;1mk[0m| |[7;1m [0m|[30;1mp[0m|[7;1m [0m| |[7;1m [0m|| 5
[32;1m[Board] [0m  -------------------
[32;1m[Board] [0m4 ||[0;1mp[0m| |[7;1m [0m| |[0;1mp[0m| |[0;1mp[0m| || 4
[32;1m[Board] [0m  -------------------
[32;1m[Board] [0m3 || |[7;1m [0m|[30;1mp[0m|[7;1m [0m| |[30;1mb[0m| |[7;1m [0m|| 3
[32;1m[Board] [0m  -------------------
[32;1m[Board] [0m2 ||[7;1m [0m|[0;1mp[0m|[7;1m [0m| |[7;1m [0m| |[30;1mQ[0m| || 2
[32;1m[Board] [0m  -------------------
[32;1m[Board] [0m1 ||[0;1mr[0m|[7;1m [0m|[0;1mb[0m|[7;1m [0m|[0;1mK[0m|[7;1m [0m| |[30;1mr[0m|| 1
[32;1m[Board] [0m  -------------------
[32;1m[Board] [0m    a b c d e f g h
[32;1m[Board] [0m
[32;1m[Referee] [0mThis is the turn of the White player...
[32;1m[Board] [0m[33;1m[WARNING][0m [5;1mWhite King in checkmate![0m
[32;1m[Board] [0m[33;1m[WARNING][0m The Black player wins!
