[32;1m[Board] [0mInitializing board...
[32;1m[Board] [0m
[32;1m[Board] [0m    a b c d e f g h 
[32;1m[Board] [0m  -------------------
[32;1m[Board] [0m8 ||[30;1mr[0m|[30;1mk[0m|[30;1mb[0m|[30;1mQ[0m|[30;1mK[0m|[30;1mb[0m|[30;1mk[0m|[30;1mr[0m|| 8
[32;1m[Board] [0m  -------------------
[32;1m[Board] [0m7 ||[30;1mp[0m|[30;1mp[0m|[30;1mp[0m|[30;1mp[0m|[30;1mp[0m|[30;1mp[0m|[30;1mp[0m|[30;1mp[0m|| 7
[32;1m[Board] [0m  -------------------
[32;1m[Board] [0m6 ||[7;1m [0m| |[7;1m [0m| |[7;1m [0m| |[7;1m [0m| || 6
[32;1m[Board] [0m  -------------------
[32;1m[Board] [0m5 || |[7;1m [0m| |[7;1m [0m| |[7;1m [0m| |[7;1m [0m|| 5
[32;1m[Board] [0m  -------------------
[32;1m[Board] [0m4 ||[7;1m [0m| |[7;1m [0m| |[7;1m [0m| |[7;1m [0m| || 4
[32;1m[Board] [0m  -------------------
[32;1m[Board] [0m3 || |[7;1m [0m| |[7;1m [0m| |[7;1m [0m| |[7;1m [0m|| 3
[32;1m[Board] [0m  -------------------
[32;1m[Board] [0m2 ||[0;1mp[0m|[0;1mp[0m|[0;1mp[0m|[0;1mp[0m|[0;1mp[0m|[0;1mp[0m|[0;1mp[0m|[0;1mp[0m|| 2
[32;1m[Board] [0m  -------------------
[32;1m[Board] [0m1 ||[0;1mr[0m|[0;1mk[0m|[0;1mb[0m|[0;1mQ[0m|[0;1mK[0m|[0;1mb[0m|[0;1mk[0m|[0;1mr[0m|| 1
[32;1m[Board] [0m  -------------------
[32;1m[Board] [0m    a b c d e f g h
[32;1m[Board] [0m
[32;1m[Referee] [0mThis is the turn of the White player...
Input file: championship/lizzie-iii-blueherring/history.csv
Output file: championship/lizzie-iii-blueherring/move.csv
We are playing as White
Move history:
8 | R N B Q K B N R 
7 | P P P P P P P P 
6 | _ _ _ _ _ _ _ _ 
5 | _ _ _ _ _ _ _ _ 
4 | _ _ _ _ _ _ _ _ 
3 | _ _ _ _ _ _ _ _ 
2 | P P P P P P P P 
1 | R N B Q K B N R 
-------------------
  | A B C D E F G H 

It is white's turn to play.
AI's move: d2d3
Move written: d2d3
[32;1m[Game] [0mPlayer's error code: 0
[32;1m[Game] [0mChecking move validity...
[32;1m[Board] [0mInitializing board...
[32;1m[Board] [0mLoading history file `championship/lizzie-iii-blueherring/history.csv`...
[32;1m[Board] [0mLoaded 0 move(s).
[32;1m[Board] [0mLoading move file `championship/lizzie-iii-blueherring/move.csv`...
[32;1m[Board] [0mWhite player is playing d2 to d3.
[32;1m[Board] [0m
[32;1m[Board] [0m    a b c d e f g h 
[32;1m[Board] [0m  -------------------
[32;1m[Board] [0m8 ||[30;1mr[0m|[30;1mk[0m|[30;1mb[0m|[30;1mQ[0m|[30;1mK[0m|[30;1mb[0m|[30;1mk[0m|[30;1mr[0m|| 8
[32;1m[Board] [0m  -------------------
[32;1m[Board] [0m7 ||[30;1mp[0m|[30;1mp[0m|[30;1mp[0m|[30;1mp[0m|[30;1mp[0m|[30;1mp[0m|[30;1mp[0m|[30;1mp[0m|| 7
[32;1m[Board] [0m  -------------------
[32;1m[Board] [0m6 ||[7;1m [0m| |[7;1m [0m| |[7;1m [0m| |[7;1m [0m| || 6
[32;1m[Board] [0m  -------------------
[32;1m[Board] [0m5 || |[7;1m [0m| |[7;1m [0m| |[7;1m [0m| |[7;1m [0m|| 5
[32;1m[Board] [0m  -------------------
[32;1m[Board] [0m4 ||[7;1m [0m| |[7;1m [0m| |[7;1m [0m| |[7;1m [0m| || 4
[32;1m[Board] [0m  -------------------
[32;1m[Board] [0m3 || |[7;1m [0m| |[0;1mp[0m| |[7;1m [0m| |[7;1m [0m|| 3
[32;1m[Board] [0m  -------------------
[32;1m[Board] [0m2 ||[0;1mp[0m|[0;1mp[0m|[0;1mp[0m| |[0;1mp[0m|[0;1mp[0m|[0;1mp[0m|[0;1mp[0m|| 2
[32;1m[Board] [0m  -------------------
[32;1m[Board] [0m1 ||[0;1mr[0m|[0;1mk[0m|[0;1mb[0m|[0;1mQ[0m|[0;1mK[0m|[0;1mb[0m|[0;1mk[0m|[0;1mr[0m|| 1
[32;1m[Board] [0m  -------------------
[32;1m[Board] [0m    a b c d e f g h
[32;1m[Board] [0m
[32;1m[Referee] [0mThis is the turn of the Black player...
[32;1m[Game] [0mPlayer's error code: 0
[32;1m[Game] [0mChecking move validity...
[32;1m[Board] [0mInitializing board...
[32;1m[Board] [0mLoading history file `championship/lizzie-iii-blueherring/history.csv`...
[32;1m[Board] [0mLoaded 1 move(s).
[32;1m[Board] [0mLoading move file `championship/lizzie-iii-blueherring/move.csv`...
[32;1m[Board] [0mBlack player is playing b8 to c6.
[32;1m[Board] [0m
[32;1m[Board] [0m    a b c d e f g h 
[32;1m[Board] [0m  -------------------
[32;1m[Board] [0m8 ||[30;1mr[0m| |[30;1mb[0m|[30;1mQ[0m|[30;1mK[0m|[30;1mb[0m|[30;1mk[0m|[30;1mr[0m|| 8
[32;1m[Board] [0m  -------------------
[32;1m[Board] [0m7 ||[30;1mp[0m|[30;1mp[0m|[30;1mp[0m|[30;1mp[0m|[30;1mp[0m|[30;1mp[0m|[30;1mp[0m|[30;1mp[0m|| 7
[32;1m[Board] [0m  -------------------
[32;1m[Board] [0m6 ||[7;1m [0m| |[30;1mk[0m| |[7;1m [0m| |[7;1m [0m| || 6
[32;1m[Board] [0m  -------------------
[32;1m[Board] [0m5 || |[7;1m [0m| |[7;1m [0m| |[7;1m [0m| |[7;1m [0m|| 5
[32;1m[Board] [0m  -------------------
[32;1m[Board] [0m4 ||[7;1m [0m| |[7;1m [0m| |[7;1m [0m| |[7;1m [0m| || 4
[32;1m[Board] [0m  -------------------
[32;1m[Board] [0m3 || |[7;1m [0m| |[0;1mp[0m| |[7;1m [0m| |[7;1m [0m|| 3
[32;1m[Board] [0m  -------------------
[32;1m[Board] [0m2 ||[0;1mp[0m|[0;1mp[0m|[0;1mp[0m| |[0;1mp[0m|[0;1mp[0m|[0;1mp[0m|[0;1mp[0m|| 2
[32;1m[Board] [0m  -------------------
[32;1m[Board] [0m1 ||[0;1mr[0m|[0;1mk[0m|[0;1mb[0m|[0;1mQ[0m|[0;1mK[0m|[0;1mb[0m|[0;1mk[0m|[0;1mr[0m|| 1
[32;1m[Board] [0m  -------------------
[32;1m[Board] [0m    a b c d e f g h
[32;1m[Board] [0m
[32;1m[Referee] [0mThis is the turn of the White player...
Input file: championship/lizzie-iii-blueherring/history.csv
Output file: championship/lizzie-iii-blueherring/move.csv
Turn of: white
Succesful move
d2d3
8 | R N B Q K B N R 
7 | P P P P P P P P 
6 | _ _ _ _ _ _ _ _ 
5 | _ _ _ _ _ _ _ _ 
4 | _ _ _ _ _ _ _ _ 
3 | _ _ _ P _ _ _ _ 
2 | P P P _ P P P P 
1 | R N B Q K B N R 
-------------------
  | A B C D E F G H 

Turn of: black
Succesful move
b8c6
8 | R _ B Q K B N R 
7 | P P P P P P P P 
6 | _ _ N _ _ _ _ _ 
5 | _ _ _ _ _ _ _ _ 
4 | _ _ _ _ _ _ _ _ 
3 | _ _ _ P _ _ _ _ 
2 | P P P _ P P P P 
1 | R N B Q K B N R 
-------------------
  | A B C D E F G H 

We are playing as White
Move history:
d2d3
b8c6
8 | R _ B Q K B N R 
7 | P P P P P P P P 
6 | _ _ N _ _ _ _ _ 
5 | _ _ _ _ _ _ _ _ 
4 | _ _ _ _ _ _ _ _ 
3 | _ _ _ P _ _ _ _ 
2 | P P P _ P P P P 
1 | R N B Q K B N R 
-------------------
  | A B C D E F G H 

It is white's turn to play.
AI's move: c1g5
Move written: c1g5
[32;1m[Game] [0mPlayer's error code: 0
[32;1m[Game] [0mChecking move validity...
[32;1m[Board] [0mInitializing board...
[32;1m[Board] [0mLoading history file `championship/lizzie-iii-blueherring/history.csv`...
[32;1m[Board] [0mLoaded 2 move(s).
[32;1m[Board] [0mLoading move file `championship/lizzie-iii-blueherring/move.csv`...
[32;1m[Board] [0mWhite player is playing c1 to g5.
[32;1m[Board] [0m
[32;1m[Board] [0m    a b c d e f g h 
[32;1m[Board] [0m  -------------------
[32;1m[Board] [0m8 ||[30;1mr[0m| |[30;1mb[0m|[30;1mQ[0m|[30;1mK[0m|[30;1mb[0m|[30;1mk[0m|[30;1mr[0m|| 8
[32;1m[Board] [0m  -------------------
[32;1m[Board] [0m7 ||[30;1mp[0m|[30;1mp[0m|[30;1mp[0m|[30;1mp[0m|[30;1mp[0m|[30;1mp[0m|[30;1mp[0m|[30;1mp[0m|| 7
[32;1m[Board] [0m  -------------------
[32;1m[Board] [0m6 ||[7;1m [0m| |[30;1mk[0m| |[7;1m [0m| |[7;1m [0m| || 6
[32;1m[Board] [0m  -------------------
[32;1m[Board] [0m5 || |[7;1m [0m| |[7;1m [0m| |[7;1m [0m|[0;1mb[0m|[7;1m [0m|| 5
[32;1m[Board] [0m  -------------------
[32;1m[Board] [0m4 ||[7;1m [0m| |[7;1m [0m| |[7;1m [0m| |[7;1m [0m| || 4
[32;1m[Board] [0m  -------------------
[32;1m[Board] [0m3 || |[7;1m [0m| |[0;1mp[0m| |[7;1m [0m| |[7;1m [0m|| 3
[32;1m[Board] [0m  -------------------
[32;1m[Board] [0m2 ||[0;1mp[0m|[0;1mp[0m|[0;1mp[0m| |[0;1mp[0m|[0;1mp[0m|[0;1mp[0m|[0;1mp[0m|| 2
[32;1m[Board] [0m  -------------------
[32;1m[Board] [0m1 ||[0;1mr[0m|[0;1mk[0m| |[0;1mQ[0m|[0;1mK[0m|[0;1mb[0m|[0;1mk[0m|[0;1mr[0m|| 1
[32;1m[Board] [0m  -------------------
[32;1m[Board] [0m    a b c d e f g h
[32;1m[Board] [0m
[32;1m[Referee] [0mThis is the turn of the Black player...
[32;1m[Game] [0mPlayer's error code: 0
[32;1m[Game] [0mChecking move validity...
[32;1m[Board] [0mInitializing board...
[32;1m[Board] [0mLoading history file `championship/lizzie-iii-blueherring/history.csv`...
[32;1m[Board] [0mLoaded 3 move(s).
[32;1m[Board] [0mLoading move file `championship/lizzie-iii-blueherring/move.csv`...
[32;1m[Board] [0mBlack player is playing c6 to d4.
[32;1m[Board] [0m
[32;1m[Board] [0m    a b c d e f g h 
[32;1m[Board] [0m  -------------------
[32;1m[Board] [0m8 ||[30;1mr[0m| |[30;1mb[0m|[30;1mQ[0m|[30;1mK[0m|[30;1mb[0m|[30;1mk[0m|[30;1mr[0m|| 8
[32;1m[Board] [0m  -------------------
[32;1m[Board] [0m7 ||[30;1mp[0m|[30;1mp[0m|[30;1mp[0m|[30;1mp[0m|[30;1mp[0m|[30;1mp[0m|[30;1mp[0m|[30;1mp[0m|| 7
[32;1m[Board] [0m  -------------------
[32;1m[Board] [0m6 ||[7;1m [0m| |[7;1m [0m| |[7;1m [0m| |[7;1m [0m| || 6
[32;1m[Board] [0m  -------------------
[32;1m[Board] [0m5 || |[7;1m [0m| |[7;1m [0m| |[7;1m [0m|[0;1mb[0m|[7;1m [0m|| 5
[32;1m[Board] [0m  -------------------
[32;1m[Board] [0m4 ||[7;1m [0m| |[7;1m [0m|[30;1mk[0m|[7;1m [0m| |[7;1m [0m| || 4
[32;1m[Board] [0m  -------------------
[32;1m[Board] [0m3 || |[7;1m [0m| |[0;1mp[0m| |[7;1m [0m| |[7;1m [0m|| 3
[32;1m[Board] [0m  -------------------
[32;1m[Board] [0m2 ||[0;1mp[0m|[0;1mp[0m|[0;1mp[0m| |[0;1mp[0m|[0;1mp[0m|[0;1mp[0m|[0;1mp[0m|| 2
[32;1m[Board] [0m  -------------------
[32;1m[Board] [0m1 ||[0;1mr[0m|[0;1mk[0m| |[0;1mQ[0m|[0;1mK[0m|[0;1mb[0m|[0;1mk[0m|[0;1mr[0m|| 1
[32;1m[Board] [0m  -------------------
[32;1m[Board] [0m    a b c d e f g h
[32;1m[Board] [0m
[32;1m[Referee] [0mThis is the turn of the White player...
Input file: championship/lizzie-iii-blueherring/history.csv
Output file: championship/lizzie-iii-blueherring/move.csv
Turn of: white
Succesful move
d2d3
8 | R N B Q K B N R 
7 | P P P P P P P P 
6 | _ _ _ _ _ _ _ _ 
5 | _ _ _ _ _ _ _ _ 
4 | _ _ _ _ _ _ _ _ 
3 | _ _ _ P _ _ _ _ 
2 | P P P _ P P P P 
1 | R N B Q K B N R 
-------------------
  | A B C D E F G H 

Turn of: black
Succesful move
b8c6
8 | R _ B Q K B N R 
7 | P P P P P P P P 
6 | _ _ N _ _ _ _ _ 
5 | _ _ _ _ _ _ _ _ 
4 | _ _ _ _ _ _ _ _ 
3 | _ _ _ P _ _ _ _ 
2 | P P P _ P P P P 
1 | R N B Q K B N R 
-------------------
  | A B C D E F G H 

Turn of: white
Succesful move
c1g5
8 | R _ B Q K B N R 
7 | P P P P P P P P 
6 | _ _ N _ _ _ _ _ 
5 | _ _ _ _ _ _ B _ 
4 | _ _ _ _ _ _ _ _ 
3 | _ _ _ P _ _ _ _ 
2 | P P P _ P P P P 
1 | R N _ Q K B N R 
-------------------
  | A B C D E F G H 

Turn of: black
Succesful move
c6d4
8 | R _ B Q K B N R 
7 | P P P P P P P P 
6 | _ _ _ _ _ _ _ _ 
5 | _ _ _ _ _ _ B _ 
4 | _ _ _ N _ _ _ _ 
3 | _ _ _ P _ _ _ _ 
2 | P P P _ P P P P 
1 | R N _ Q K B N R 
-------------------
  | A B C D E F G H 

We are playing as White
Move history:
d2d3
b8c6
c1g5
c6d4
8 | R _ B Q K B N R 
7 | P P P P P P P P 
6 | _ _ _ _ _ _ _ _ 
5 | _ _ _ _ _ _ B _ 
4 | _ _ _ N _ _ _ _ 
3 | _ _ _ P _ _ _ _ 
2 | P P P _ P P P P 
1 | R N _ Q K B N R 
-------------------
  | A B C D E F G H 

It is white's turn to play.
AI's move: c2c4
Move written: c2c4
[32;1m[Game] [0mPlayer's error code: 0
[32;1m[Game] [0mChecking move validity...
[32;1m[Board] [0mInitializing board...
[32;1m[Board] [0mLoading history file `championship/lizzie-iii-blueherring/history.csv`...
[32;1m[Board] [0mLoaded 4 move(s).
[32;1m[Board] [0mLoading move file `championship/lizzie-iii-blueherring/move.csv`...
[32;1m[Board] [0mWhite player is playing c2 to c4.
[32;1m[Board] [0m
[32;1m[Board] [0m    a b c d e f g h 
[32;1m[Board] [0m  -------------------
[32;1m[Board] [0m8 ||[30;1mr[0m| |[30;1mb[0m|[30;1mQ[0m|[30;1mK[0m|[30;1mb[0m|[30;1mk[0m|[30;1mr[0m|| 8
[32;1m[Board] [0m  -------------------
[32;1m[Board] [0m7 ||[30;1mp[0m|[30;1mp[0m|[30;1mp[0m|[30;1mp[0m|[30;1mp[0m|[30;1mp[0m|[30;1mp[0m|[30;1mp[0m|| 7
[32;1m[Board] [0m  -------------------
[32;1m[Board] [0m6 ||[7;1m [0m| |[7;1m [0m| |[7;1m [0m| |[7;1m [0m| || 6
[32;1m[Board] [0m  -------------------
[32;1m[Board] [0m5 || |[7;1m [0m| |[7;1m [0m| |[7;1m [0m|[0;1mb[0m|[7;1m [0m|| 5
[32;1m[Board] [0m  -------------------
[32;1m[Board] [0m4 ||[7;1m [0m| |[0;1mp[0m|[30;1mk[0m|[7;1m [0m| |[7;1m [0m| || 4
[32;1m[Board] [0m  -------------------
[32;1m[Board] [0m3 || |[7;1m [0m| |[0;1mp[0m| |[7;1m [0m| |[7;1m [0m|| 3
[32;1m[Board] [0m  -------------------
[32;1m[Board] [0m2 ||[0;1mp[0m|[0;1mp[0m|[7;1m [0m| |[0;1mp[0m|[0;1mp[0m|[0;1mp[0m|[0;1mp[0m|| 2
[32;1m[Board] [0m  -------------------
[32;1m[Board] [0m1 ||[0;1mr[0m|[0;1mk[0m| |[0;1mQ[0m|[0;1mK[0m|[0;1mb[0m|[0;1mk[0m|[0;1mr[0m|| 1
[32;1m[Board] [0m  -------------------
[32;1m[Board] [0m    a b c d e f g h
[32;1m[Board] [0m
[32;1m[Referee] [0mThis is the turn of the Black player...
[32;1m[Game] [0mPlayer's error code: 0
[32;1m[Game] [0mChecking move validity...
[32;1m[Board] [0mInitializing board...
[32;1m[Board] [0mLoading history file `championship/lizzie-iii-blueherring/history.csv`...
[32;1m[Board] [0mLoaded 5 move(s).
[32;1m[Board] [0mLoading move file `championship/lizzie-iii-blueherring/move.csv`...
[32;1m[Board] [0mBlack player is playing f7 to f6.
[32;1m[Board] [0m
[32;1m[Board] [0m    a b c d e f g h 
[32;1m[Board] [0m  -------------------
[32;1m[Board] [0m8 ||[30;1mr[0m| |[30;1mb[0m|[30;1mQ[0m|[30;1mK[0m|[30;1mb[0m|[30;1mk[0m|[30;1mr[0m|| 8
[32;1m[Board] [0m  -------------------
[32;1m[Board] [0m7 ||[30;1mp[0m|[30;1mp[0m|[30;1mp[0m|[30;1mp[0m|[30;1mp[0m|[7;1m [0m|[30;1mp[0m|[30;1mp[0m|| 7
[32;1m[Board] [0m  -------------------
[32;1m[Board] [0m6 ||[7;1m [0m| |[7;1m [0m| |[7;1m [0m|[30;1mp[0m|[7;1m [0m| || 6
[32;1m[Board] [0m  -------------------
[32;1m[Board] [0m5 || |[7;1m [0m| |[7;1m [0m| |[7;1m [0m|[0;1mb[0m|[7;1m [0m|| 5
[32;1m[Board] [0m  -------------------
[32;1m[Board] [0m4 ||[7;1m [0m| |[0;1mp[0m|[30;1mk[0m|[7;1m [0m| |[7;1m [0m| || 4
[32;1m[Board] [0m  -------------------
[32;1m[Board] [0m3 || |[7;1m [0m| |[0;1mp[0m| |[7;1m [0m| |[7;1m [0m|| 3
[32;1m[Board] [0m  -------------------
[32;1m[Board] [0m2 ||[0;1mp[0m|[0;1mp[0m|[7;1m [0m| |[0;1mp[0m|[0;1mp[0m|[0;1mp[0m|[0;1mp[0m|| 2
[32;1m[Board] [0m  -------------------
[32;1m[Board] [0m1 ||[0;1mr[0m|[0;1mk[0m| |[0;1mQ[0m|[0;1mK[0m|[0;1mb[0m|[0;1mk[0m|[0;1mr[0m|| 1
[32;1m[Board] [0m  -------------------
[32;1m[Board] [0m    a b c d e f g h
[32;1m[Board] [0m
[32;1m[Referee] [0mThis is the turn of the White player...
Input file: championship/lizzie-iii-blueherring/history.csv
Output file: championship/lizzie-iii-blueherring/move.csv
Turn of: white
Succesful move
d2d3
8 | R N B Q K B N R 
7 | P P P P P P P P 
6 | _ _ _ _ _ _ _ _ 
5 | _ _ _ _ _ _ _ _ 
4 | _ _ _ _ _ _ _ _ 
3 | _ _ _ P _ _ _ _ 
2 | P P P _ P P P P 
1 | R N B Q K B N R 
-------------------
  | A B C D E F G H 

Turn of: black
Succesful move
b8c6
8 | R _ B Q K B N R 
7 | P P P P P P P P 
6 | _ _ N _ _ _ _ _ 
5 | _ _ _ _ _ _ _ _ 
4 | _ _ _ _ _ _ _ _ 
3 | _ _ _ P _ _ _ _ 
2 | P P P _ P P P P 
1 | R N B Q K B N R 
-------------------
  | A B C D E F G H 

Turn of: white
Succesful move
c1g5
8 | R _ B Q K B N R 
7 | P P P P P P P P 
6 | _ _ N _ _ _ _ _ 
5 | _ _ _ _ _ _ B _ 
4 | _ _ _ _ _ _ _ _ 
3 | _ _ _ P _ _ _ _ 
2 | P P P _ P P P P 
1 | R N _ Q K B N R 
-------------------
  | A B C D E F G H 

Turn of: black
Succesful move
c6d4
8 | R _ B Q K B N R 
7 | P P P P P P P P 
6 | _ _ _ _ _ _ _ _ 
5 | _ _ _ _ _ _ B _ 
4 | _ _ _ N _ _ _ _ 
3 | _ _ _ P _ _ _ _ 
2 | P P P _ P P P P 
1 | R N _ Q K B N R 
-------------------
  | A B C D E F G H 

Turn of: white
Succesful move
c2c4
8 | R _ B Q K B N R 
7 | P P P P P P P P 
6 | _ _ _ _ _ _ _ _ 
5 | _ _ _ _ _ _ B _ 
4 | _ _ P N _ _ _ _ 
3 | _ _ _ P _ _ _ _ 
2 | P P _ _ P P P P 
1 | R N _ Q K B N R 
-------------------
  | A B C D E F G H 

Turn of: black
Succesful move
f7f6
8 | R _ B Q K B N R 
7 | P P P P P _ P P 
6 | _ _ _ _ _ P _ _ 
5 | _ _ _ _ _ _ B _ 
4 | _ _ P N _ _ _ _ 
3 | _ _ _ P _ _ _ _ 
2 | P P _ _ P P P P 
1 | R N _ Q K B N R 
-------------------
  | A B C D E F G H 

We are playing as White
Move history:
d2d3
b8c6
c1g5
c6d4
c2c4
f7f6
8 | R _ B Q K B N R 
7 | P P P P P _ P P 
6 | _ _ _ _ _ P _ _ 
5 | _ _ _ _ _ _ B _ 
4 | _ _ P N _ _ _ _ 
3 | _ _ _ P _ _ _ _ 
2 | P P _ _ P P P P 
1 | R N _ Q K B N R 
-------------------
  | A B C D E F G H 

It is white's turn to play.
AI's move: f2f3
Move written: f2f3
[32;1m[Game] [0mPlayer's error code: 0
[32;1m[Game] [0mChecking move validity...
[32;1m[Board] [0mInitializing board...
[32;1m[Board] [0mLoading history file `championship/lizzie-iii-blueherring/history.csv`...
[32;1m[Board] [0mLoaded 6 move(s).
[32;1m[Board] [0mLoading move file `championship/lizzie-iii-blueherring/move.csv`...
[32;1m[Board] [0mWhite player is playing f2 to f3.
[32;1m[Board] [0m
[32;1m[Board] [0m    a b c d e f g h 
[32;1m[Board] [0m  -------------------
[32;1m[Board] [0m8 ||[30;1mr[0m| |[30;1mb[0m|[30;1mQ[0m|[30;1mK[0m|[30;1mb[0m|[30;1mk[0m|[30;1mr[0m|| 8
[32;1m[Board] [0m  -------------------
[32;1m[Board] [0m7 ||[30;1mp[0m|[30;1mp[0m|[30;1mp[0m|[30;1mp[0m|[30;1mp[0m|[7;1m [0m|[30;1mp[0m|[30;1mp[0m|| 7
[32;1m[Board] [0m  -------------------
[32;1m[Board] [0m6 ||[7;1m [0m| |[7;1m [0m| |[7;1m [0m|[30;1mp[0m|[7;1m [0m| || 6
[32;1m[Board] [0m  -------------------
[32;1m[Board] [0m5 || |[7;1m [0m| |[7;1m [0m| |[7;1m [0m|[0;1mb[0m|[7;1m [0m|| 5
[32;1m[Board] [0m  -------------------
[32;1m[Board] [0m4 ||[7;1m [0m| |[0;1mp[0m|[30;1mk[0m|[7;1m [0m| |[7;1m [0m| || 4
[32;1m[Board] [0m  -------------------
[32;1m[Board] [0m3 || |[7;1m [0m| |[0;1mp[0m| |[0;1mp[0m| |[7;1m [0m|| 3
[32;1m[Board] [0m  -------------------
[32;1m[Board] [0m2 ||[0;1mp[0m|[0;1mp[0m|[7;1m [0m| |[0;1mp[0m| |[0;1mp[0m|[0;1mp[0m|| 2
[32;1m[Board] [0m  -------------------
[32;1m[Board] [0m1 ||[0;1mr[0m|[0;1mk[0m| |[0;1mQ[0m|[0;1mK[0m|[0;1mb[0m|[0;1mk[0m|[0;1mr[0m|| 1
[32;1m[Board] [0m  -------------------
[32;1m[Board] [0m    a b c d e f g h
[32;1m[Board] [0m
[32;1m[Referee] [0mThis is the turn of the Black player...
[32;1m[Game] [0mPlayer's error code: 0
[32;1m[Game] [0mChecking move validity...
[32;1m[Board] [0mInitializing board...
[32;1m[Board] [0mLoading history file `championship/lizzie-iii-blueherring/history.csv`...
[32;1m[Board] [0mLoaded 7 move(s).
[32;1m[Board] [0mLoading move file `championship/lizzie-iii-blueherring/move.csv`...
[32;1m[Board] [0mBlack player is playing f6 to g5.
[32;1m[Board] [0m[5;1mBlack Pawn is taking White Bishop.[0m
[32;1m[Board] [0m
[32;1m[Board] [0m    a b c d e f g h 
[32;1m[Board] [0m  -------------------
[32;1m[Board] [0m8 ||[30;1mr[0m| |[30;1mb[0m|[30;1mQ[0m|[30;1mK[0m|[30;1mb[0m|[30;1mk[0m|[30;1mr[0m|| 8
[32;1m[Board] [0m  -------------------
[32;1m[Board] [0m7 ||[30;1mp[0m|[30;1mp[0m|[30;1mp[0m|[30;1mp[0m|[30;1mp[0m|[7;1m [0m|[30;1mp[0m|[30;1mp[0m|| 7
[32;1m[Board] [0m  -------------------
[32;1m[Board] [0m6 ||[7;1m [0m| |[7;1m [0m| |[7;1m [0m| |[7;1m [0m| || 6
[32;1m[Board] [0m  -------------------
[32;1m[Board] [0m5 || |[7;1m [0m| |[7;1m [0m| |[7;1m [0m|[30;1mp[0m|[7;1m [0m|| 5
[32;1m[Board] [0m  -------------------
[32;1m[Board] [0m4 ||[7;1m [0m| |[0;1mp[0m|[30;1mk[0m|[7;1m [0m| |[7;1m [0m| || 4
[32;1m[Board] [0m  -------------------
[32;1m[Board] [0m3 || |[7;1m [0m| |[0;1mp[0m| |[0;1mp[0m| |[7;1m [0m|| 3
[32;1m[Board] [0m  -------------------
[32;1m[Board] [0m2 ||[0;1mp[0m|[0;1mp[0m|[7;1m [0m| |[0;1mp[0m| |[0;1mp[0m|[0;1mp[0m|| 2
[32;1m[Board] [0m  -------------------
[32;1m[Board] [0m1 ||[0;1mr[0m|[0;1mk[0m| |[0;1mQ[0m|[0;1mK[0m|[0;1mb[0m|[0;1mk[0m|[0;1mr[0m|| 1
[32;1m[Board] [0m  -------------------
[32;1m[Board] [0m    a b c d e f g h
[32;1m[Board] [0m
[32;1m[Referee] [0mThis is the turn of the White player...
Input file: championship/lizzie-iii-blueherring/history.csv
Output file: championship/lizzie-iii-blueherring/move.csv
Turn of: white
Succesful move
d2d3
8 | R N B Q K B N R 
7 | P P P P P P P P 
6 | _ _ _ _ _ _ _ _ 
5 | _ _ _ _ _ _ _ _ 
4 | _ _ _ _ _ _ _ _ 
3 | _ _ _ P _ _ _ _ 
2 | P P P _ P P P P 
1 | R N B Q K B N R 
-------------------
  | A B C D E F G H 

Turn of: black
Succesful move
b8c6
8 | R _ B Q K B N R 
7 | P P P P P P P P 
6 | _ _ N _ _ _ _ _ 
5 | _ _ _ _ _ _ _ _ 
4 | _ _ _ _ _ _ _ _ 
3 | _ _ _ P _ _ _ _ 
2 | P P P _ P P P P 
1 | R N B Q K B N R 
-------------------
  | A B C D E F G H 

Turn of: white
Succesful move
c1g5
8 | R _ B Q K B N R 
7 | P P P P P P P P 
6 | _ _ N _ _ _ _ _ 
5 | _ _ _ _ _ _ B _ 
4 | _ _ _ _ _ _ _ _ 
3 | _ _ _ P _ _ _ _ 
2 | P P P _ P P P P 
1 | R N _ Q K B N R 
-------------------
  | A B C D E F G H 

Turn of: black
Succesful move
c6d4
8 | R _ B Q K B N R 
7 | P P P P P P P P 
6 | _ _ _ _ _ _ _ _ 
5 | _ _ _ _ _ _ B _ 
4 | _ _ _ N _ _ _ _ 
3 | _ _ _ P _ _ _ _ 
2 | P P P _ P P P P 
1 | R N _ Q K B N R 
-------------------
  | A B C D E F G H 

Turn of: white
Succesful move
c2c4
8 | R _ B Q K B N R 
7 | P P P P P P P P 
6 | _ _ _ _ _ _ _ _ 
5 | _ _ _ _ _ _ B _ 
4 | _ _ P N _ _ _ _ 
3 | _ _ _ P _ _ _ _ 
2 | P P _ _ P P P P 
1 | R N _ Q K B N R 
-------------------
  | A B C D E F G H 

Turn of: black
Succesful move
f7f6
8 | R _ B Q K B N R 
7 | P P P P P _ P P 
6 | _ _ _ _ _ P _ _ 
5 | _ _ _ _ _ _ B _ 
4 | _ _ P N _ _ _ _ 
3 | _ _ _ P _ _ _ _ 
2 | P P _ _ P P P P 
1 | R N _ Q K B N R 
-------------------
  | A B C D E F G H 

Turn of: white
Succesful move
f2f3
8 | R _ B Q K B N R 
7 | P P P P P _ P P 
6 | _ _ _ _ _ P _ _ 
5 | _ _ _ _ _ _ B _ 
4 | _ _ P N _ _ _ _ 
3 | _ _ _ P _ P _ _ 
2 | P P _ _ P _ P P 
1 | R N _ Q K B N R 
-------------------
  | A B C D E F G H 

Turn of: black
Succesful move
f6g5
8 | R _ B Q K B N R 
7 | P P P P P _ P P 
6 | _ _ _ _ _ _ _ _ 
5 | _ _ _ _ _ _ P _ 
4 | _ _ P N _ _ _ _ 
3 | _ _ _ P _ P _ _ 
2 | P P _ _ P _ P P 
1 | R N _ Q K B N R 
-------------------
  | A B C D E F G H 

We are playing as White
Move history:
d2d3
b8c6
c1g5
c6d4
c2c4
f7f6
f2f3
f6g5
8 | R _ B Q K B N R 
7 | P P P P P _ P P 
6 | _ _ _ _ _ _ _ _ 
5 | _ _ _ _ _ _ P _ 
4 | _ _ P N _ _ _ _ 
3 | _ _ _ P _ P _ _ 
2 | P P _ _ P _ P P 
1 | R N _ Q K B N R 
-------------------
  | A B C D E F G H 

It is white's turn to play.
AI's move: d1a4
Move written: d1a4
[32;1m[Game] [0mPlayer's error code: 0
[32;1m[Game] [0mChecking move validity...
[32;1m[Board] [0mInitializing board...
[32;1m[Board] [0mLoading history file `championship/lizzie-iii-blueherring/history.csv`...
[32;1m[Board] [0mLoaded 8 move(s).
[32;1m[Board] [0mLoading move file `championship/lizzie-iii-blueherring/move.csv`...
[32;1m[Board] [0mWhite player is playing d1 to a4.
[32;1m[Board] [0m
[32;1m[Board] [0m    a b c d e f g h 
[32;1m[Board] [0m  -------------------
[32;1m[Board] [0m8 ||[30;1mr[0m| |[30;1mb[0m|[30;1mQ[0m|[30;1mK[0m|[30;1mb[0m|[30;1mk[0m|[30;1mr[0m|| 8
[32;1m[Board] [0m  -------------------
[32;1m[Board] [0m7 ||[30;1mp[0m|[30;1mp[0m|[30;1mp[0m|[30;1mp[0m|[30;1mp[0m|[7;1m [0m|[30;1mp[0m|[30;1mp[0m|| 7
[32;1m[Board] [0m  -------------------
[32;1m[Board] [0m6 ||[7;1m [0m| |[7;1m [0m| |[7;1m [0m| |[7;1m [0m| || 6
[32;1m[Board] [0m  -------------------
[32;1m[Board] [0m5 || |[7;1m [0m| |[7;1m [0m| |[7;1m [0m|[30;1mp[0m|[7;1m [0m|| 5
[32;1m[Board] [0m  -------------------
[32;1m[Board] [0m4 ||[0;1mQ[0m| |[0;1mp[0m|[30;1mk[0m|[7;1m [0m| |[7;1m [0m| || 4
[32;1m[Board] [0m  -------------------
[32;1m[Board] [0m3 || |[7;1m [0m| |[0;1mp[0m| |[0;1mp[0m| |[7;1m [0m|| 3
[32;1m[Board] [0m  -------------------
[32;1m[Board] [0m2 ||[0;1mp[0m|[0;1mp[0m|[7;1m [0m| |[0;1mp[0m| |[0;1mp[0m|[0;1mp[0m|| 2
[32;1m[Board] [0m  -------------------
[32;1m[Board] [0m1 ||[0;1mr[0m|[0;1mk[0m| |[7;1m [0m|[0;1mK[0m|[0;1mb[0m|[0;1mk[0m|[0;1mr[0m|| 1
[32;1m[Board] [0m  -------------------
[32;1m[Board] [0m    a b c d e f g h
[32;1m[Board] [0m
[32;1m[Referee] [0mThis is the turn of the Black player...
[32;1m[Game] [0mPlayer's error code: 0
[32;1m[Game] [0mChecking move validity...
[32;1m[Board] [0mInitializing board...
[32;1m[Board] [0mLoading history file `championship/lizzie-iii-blueherring/history.csv`...
[32;1m[Board] [0mLoaded 9 move(s).
[32;1m[Board] [0mLoading move file `championship/lizzie-iii-blueherring/move.csv`...
[32;1m[Board] [0mBlack player is playing g8 to f6.
[32;1m[Board] [0m
[32;1m[Board] [0m    a b c d e f g h 
[32;1m[Board] [0m  -------------------
[32;1m[Board] [0m8 ||[30;1mr[0m| |[30;1mb[0m|[30;1mQ[0m|[30;1mK[0m|[30;1mb[0m|[7;1m [0m|[30;1mr[0m|| 8
[32;1m[Board] [0m  -------------------
[32;1m[Board] [0m7 ||[30;1mp[0m|[30;1mp[0m|[30;1mp[0m|[30;1mp[0m|[30;1mp[0m|[7;1m [0m|[30;1mp[0m|[30;1mp[0m|| 7
[32;1m[Board] [0m  -------------------
[32;1m[Board] [0m6 ||[7;1m [0m| |[7;1m [0m| |[7;1m [0m|[30;1mk[0m|[7;1m [0m| || 6
[32;1m[Board] [0m  -------------------
[32;1m[Board] [0m5 || |[7;1m [0m| |[7;1m [0m| |[7;1m [0m|[30;1mp[0m|[7;1m [0m|| 5
[32;1m[Board] [0m  -------------------
[32;1m[Board] [0m4 ||[0;1mQ[0m| |[0;1mp[0m|[30;1mk[0m|[7;1m [0m| |[7;1m [0m| || 4
[32;1m[Board] [0m  -------------------
[32;1m[Board] [0m3 || |[7;1m [0m| |[0;1mp[0m| |[0;1mp[0m| |[7;1m [0m|| 3
[32;1m[Board] [0m  -------------------
[32;1m[Board] [0m2 ||[0;1mp[0m|[0;1mp[0m|[7;1m [0m| |[0;1mp[0m| |[0;1mp[0m|[0;1mp[0m|| 2
[32;1m[Board] [0m  -------------------
[32;1m[Board] [0m1 ||[0;1mr[0m|[0;1mk[0m| |[7;1m [0m|[0;1mK[0m|[0;1mb[0m|[0;1mk[0m|[0;1mr[0m|| 1
[32;1m[Board] [0m  -------------------
[32;1m[Board] [0m    a b c d e f g h
[32;1m[Board] [0m
[32;1m[Referee] [0mThis is the turn of the White player...
Input file: championship/lizzie-iii-blueherring/history.csv
Output file: championship/lizzie-iii-blueherring/move.csv
Turn of: white
Succesful move
d2d3
8 | R N B Q K B N R 
7 | P P P P P P P P 
6 | _ _ _ _ _ _ _ _ 
5 | _ _ _ _ _ _ _ _ 
4 | _ _ _ _ _ _ _ _ 
3 | _ _ _ P _ _ _ _ 
2 | P P P _ P P P P 
1 | R N B Q K B N R 
-------------------
  | A B C D E F G H 

Turn of: black
Succesful move
b8c6
8 | R _ B Q K B N R 
7 | P P P P P P P P 
6 | _ _ N _ _ _ _ _ 
5 | _ _ _ _ _ _ _ _ 
4 | _ _ _ _ _ _ _ _ 
3 | _ _ _ P _ _ _ _ 
2 | P P P _ P P P P 
1 | R N B Q K B N R 
-------------------
  | A B C D E F G H 

Turn of: white
Succesful move
c1g5
8 | R _ B Q K B N R 
7 | P P P P P P P P 
6 | _ _ N _ _ _ _ _ 
5 | _ _ _ _ _ _ B _ 
4 | _ _ _ _ _ _ _ _ 
3 | _ _ _ P _ _ _ _ 
2 | P P P _ P P P P 
1 | R N _ Q K B N R 
-------------------
  | A B C D E F G H 

Turn of: black
Succesful move
c6d4
8 | R _ B Q K B N R 
7 | P P P P P P P P 
6 | _ _ _ _ _ _ _ _ 
5 | _ _ _ _ _ _ B _ 
4 | _ _ _ N _ _ _ _ 
3 | _ _ _ P _ _ _ _ 
2 | P P P _ P P P P 
1 | R N _ Q K B N R 
-------------------
  | A B C D E F G H 

Turn of: white
Succesful move
c2c4
8 | R _ B Q K B N R 
7 | P P P P P P P P 
6 | _ _ _ _ _ _ _ _ 
5 | _ _ _ _ _ _ B _ 
4 | _ _ P N _ _ _ _ 
3 | _ _ _ P _ _ _ _ 
2 | P P _ _ P P P P 
1 | R N _ Q K B N R 
-------------------
  | A B C D E F G H 

Turn of: black
Succesful move
f7f6
8 | R _ B Q K B N R 
7 | P P P P P _ P P 
6 | _ _ _ _ _ P _ _ 
5 | _ _ _ _ _ _ B _ 
4 | _ _ P N _ _ _ _ 
3 | _ _ _ P _ _ _ _ 
2 | P P _ _ P P P P 
1 | R N _ Q K B N R 
-------------------
  | A B C D E F G H 

Turn of: white
Succesful move
f2f3
8 | R _ B Q K B N R 
7 | P P P P P _ P P 
6 | _ _ _ _ _ P _ _ 
5 | _ _ _ _ _ _ B _ 
4 | _ _ P N _ _ _ _ 
3 | _ _ _ P _ P _ _ 
2 | P P _ _ P _ P P 
1 | R N _ Q K B N R 
-------------------
  | A B C D E F G H 

Turn of: black
Succesful move
f6g5
8 | R _ B Q K B N R 
7 | P P P P P _ P P 
6 | _ _ _ _ _ _ _ _ 
5 | _ _ _ _ _ _ P _ 
4 | _ _ P N _ _ _ _ 
3 | _ _ _ P _ P _ _ 
2 | P P _ _ P _ P P 
1 | R N _ Q K B N R 
-------------------
  | A B C D E F G H 

Turn of: white
Succesful move
d1a4
8 | R _ B Q K B N R 
7 | P P P P P _ P P 
6 | _ _ _ _ _ _ _ _ 
5 | _ _ _ _ _ _ P _ 
4 | Q _ P N _ _ _ _ 
3 | _ _ _ P _ P _ _ 
2 | P P _ _ P _ P P 
1 | R N _ _ K B N R 
-------------------
  | A B C D E F G H 

Turn of: black
Succesful move
g8f6
8 | R _ B Q K B _ R 
7 | P P P P P _ P P 
6 | _ _ _ _ _ N _ _ 
5 | _ _ _ _ _ _ P _ 
4 | Q _ P N _ _ _ _ 
3 | _ _ _ P _ P _ _ 
2 | P P _ _ P _ P P 
1 | R N _ _ K B N R 
-------------------
  | A B C D E F G H 

We are playing as White
Move history:
d2d3
b8c6
c1g5
c6d4
c2c4
f7f6
f2f3
f6g5
d1a4
g8f6
8 | R _ B Q K B _ R 
7 | P P P P P _ P P 
6 | _ _ _ _ _ N _ _ 
5 | _ _ _ _ _ _ P _ 
4 | Q _ P N _ _ _ _ 
3 | _ _ _ P _ P _ _ 
2 | P P _ _ P _ P P 
1 | R N _ _ K B N R 
-------------------
  | A B C D E F G H 

It is white's turn to play.
AI's move: b2b3
Move written: b2b3
[32;1m[Game] [0mPlayer's error code: 0
[32;1m[Game] [0mChecking move validity...
[32;1m[Board] [0mInitializing board...
[32;1m[Board] [0mLoading history file `championship/lizzie-iii-blueherring/history.csv`...
[32;1m[Board] [0mLoaded 10 move(s).
[32;1m[Board] [0mLoading move file `championship/lizzie-iii-blueherring/move.csv`...
[32;1m[Board] [0mWhite player is playing b2 to b3.
[32;1m[Board] [0m
[32;1m[Board] [0m    a b c d e f g h 
[32;1m[Board] [0m  -------------------
[32;1m[Board] [0m8 ||[30;1mr[0m| |[30;1mb[0m|[30;1mQ[0m|[30;1mK[0m|[30;1mb[0m|[7;1m [0m|[30;1mr[0m|| 8
[32;1m[Board] [0m  -------------------
[32;1m[Board] [0m7 ||[30;1mp[0m|[30;1mp[0m|[30;1mp[0m|[30;1mp[0m|[30;1mp[0m|[7;1m [0m|[30;1mp[0m|[30;1mp[0m|| 7
[32;1m[Board] [0m  -------------------
[32;1m[Board] [0m6 ||[7;1m [0m| |[7;1m [0m| |[7;1m [0m|[30;1mk[0m|[7;1m [0m| || 6
[32;1m[Board] [0m  -------------------
[32;1m[Board] [0m5 || |[7;1m [0m| |[7;1m [0m| |[7;1m [0m|[30;1mp[0m|[7;1m [0m|| 5
[32;1m[Board] [0m  -------------------
[32;1m[Board] [0m4 ||[0;1mQ[0m| |[0;1mp[0m|[30;1mk[0m|[7;1m [0m| |[7;1m [0m| || 4
[32;1m[Board] [0m  -------------------
[32;1m[Board] [0m3 || |[0;1mp[0m| |[0;1mp[0m| |[0;1mp[0m| |[7;1m [0m|| 3
[32;1m[Board] [0m  -------------------
[32;1m[Board] [0m2 ||[0;1mp[0m| |[7;1m [0m| |[0;1mp[0m| |[0;1mp[0m|[0;1mp[0m|| 2
[32;1m[Board] [0m  -------------------
[32;1m[Board] [0m1 ||[0;1mr[0m|[0;1mk[0m| |[7;1m [0m|[0;1mK[0m|[0;1mb[0m|[0;1mk[0m|[0;1mr[0m|| 1
[32;1m[Board] [0m  -------------------
[32;1m[Board] [0m    a b c d e f g h
[32;1m[Board] [0m
[32;1m[Referee] [0mThis is the turn of the Black player...
[32;1m[Game] [0mPlayer's error code: 0
[32;1m[Game] [0mChecking move validity...
[32;1m[Board] [0mInitializing board...
[32;1m[Board] [0mLoading history file `championship/lizzie-iii-blueherring/history.csv`...
[32;1m[Board] [0mLoaded 11 move(s).
[32;1m[Board] [0mLoading move file `championship/lizzie-iii-blueherring/move.csv`...
[32;1m[Board] [0mBlack player is playing d4 to c2.
[32;1m[Board] [0m
[32;1m[Board] [0m    a b c d e f g h 
[32;1m[Board] [0m  -------------------
[32;1m[Board] [0m8 ||[30;1mr[0m| |[30;1mb[0m|[30;1mQ[0m|[30;1mK[0m|[30;1mb[0m|[7;1m [0m|[30;1mr[0m|| 8
[32;1m[Board] [0m  -------------------
[32;1m[Board] [0m7 ||[30;1mp[0m|[30;1mp[0m|[30;1mp[0m|[30;1mp[0m|[30;1mp[0m|[7;1m [0m|[30;1mp[0m|[30;1mp[0m|| 7
[32;1m[Board] [0m  -------------------
[32;1m[Board] [0m6 ||[7;1m [0m| |[7;1m [0m| |[7;1m [0m|[30;1mk[0m|[7;1m [0m| || 6
[32;1m[Board] [0m  -------------------
[32;1m[Board] [0m5 || |[7;1m [0m| |[7;1m [0m| |[7;1m [0m|[30;1mp[0m|[7;1m [0m|| 5
[32;1m[Board] [0m  -------------------
[32;1m[Board] [0m4 ||[0;1mQ[0m| |[0;1mp[0m| |[7;1m [0m| |[7;1m [0m| || 4
[32;1m[Board] [0m  -------------------
[32;1m[Board] [0m3 || |[0;1mp[0m| |[0;1mp[0m| |[0;1mp[0m| |[7;1m [0m|| 3
[32;1m[Board] [0m  -------------------
[32;1m[Board] [0m2 ||[0;1mp[0m| |[30;1mk[0m| |[0;1mp[0m| |[0;1mp[0m|[0;1mp[0m|| 2
[32;1m[Board] [0m  -------------------
[32;1m[Board] [0m1 ||[0;1mr[0m|[0;1mk[0m| |[7;1m [0m|[0;1mK[0m|[0;1mb[0m|[0;1mk[0m|[0;1mr[0m|| 1
[32;1m[Board] [0m  -------------------
[32;1m[Board] [0m    a b c d e f g h
[32;1m[Board] [0m
[32;1m[Referee] [0mThis is the turn of the White player...
[32;1m[Board] [0m[33;1m[WARNING][0m [5;1mWhite King in check![0m
[32;1m[Board] [0m[33;1m[WARNING][0m    Threatened by Black Knight (c2)
Input file: championship/lizzie-iii-blueherring/history.csv
Output file: championship/lizzie-iii-blueherring/move.csv
Turn of: white
Succesful move
d2d3
8 | R N B Q K B N R 
7 | P P P P P P P P 
6 | _ _ _ _ _ _ _ _ 
5 | _ _ _ _ _ _ _ _ 
4 | _ _ _ _ _ _ _ _ 
3 | _ _ _ P _ _ _ _ 
2 | P P P _ P P P P 
1 | R N B Q K B N R 
-------------------
  | A B C D E F G H 

Turn of: black
Succesful move
b8c6
8 | R _ B Q K B N R 
7 | P P P P P P P P 
6 | _ _ N _ _ _ _ _ 
5 | _ _ _ _ _ _ _ _ 
4 | _ _ _ _ _ _ _ _ 
3 | _ _ _ P _ _ _ _ 
2 | P P P _ P P P P 
1 | R N B Q K B N R 
-------------------
  | A B C D E F G H 

Turn of: white
Succesful move
c1g5
8 | R _ B Q K B N R 
7 | P P P P P P P P 
6 | _ _ N _ _ _ _ _ 
5 | _ _ _ _ _ _ B _ 
4 | _ _ _ _ _ _ _ _ 
3 | _ _ _ P _ _ _ _ 
2 | P P P _ P P P P 
1 | R N _ Q K B N R 
-------------------
  | A B C D E F G H 

Turn of: black
Succesful move
c6d4
8 | R _ B Q K B N R 
7 | P P P P P P P P 
6 | _ _ _ _ _ _ _ _ 
5 | _ _ _ _ _ _ B _ 
4 | _ _ _ N _ _ _ _ 
3 | _ _ _ P _ _ _ _ 
2 | P P P _ P P P P 
1 | R N _ Q K B N R 
-------------------
  | A B C D E F G H 

Turn of: white
Succesful move
c2c4
8 | R _ B Q K B N R 
7 | P P P P P P P P 
6 | _ _ _ _ _ _ _ _ 
5 | _ _ _ _ _ _ B _ 
4 | _ _ P N _ _ _ _ 
3 | _ _ _ P _ _ _ _ 
2 | P P _ _ P P P P 
1 | R N _ Q K B N R 
-------------------
  | A B C D E F G H 

Turn of: black
Succesful move
f7f6
8 | R _ B Q K B N R 
7 | P P P P P _ P P 
6 | _ _ _ _ _ P _ _ 
5 | _ _ _ _ _ _ B _ 
4 | _ _ P N _ _ _ _ 
3 | _ _ _ P _ _ _ _ 
2 | P P _ _ P P P P 
1 | R N _ Q K B N R 
-------------------
  | A B C D E F G H 

Turn of: white
Succesful move
f2f3
8 | R _ B Q K B N R 
7 | P P P P P _ P P 
6 | _ _ _ _ _ P _ _ 
5 | _ _ _ _ _ _ B _ 
4 | _ _ P N _ _ _ _ 
3 | _ _ _ P _ P _ _ 
2 | P P _ _ P _ P P 
1 | R N _ Q K B N R 
-------------------
  | A B C D E F G H 

Turn of: black
Succesful move
f6g5
8 | R _ B Q K B N R 
7 | P P P P P _ P P 
6 | _ _ _ _ _ _ _ _ 
5 | _ _ _ _ _ _ P _ 
4 | _ _ P N _ _ _ _ 
3 | _ _ _ P _ P _ _ 
2 | P P _ _ P _ P P 
1 | R N _ Q K B N R 
-------------------
  | A B C D E F G H 

Turn of: white
Succesful move
d1a4
8 | R _ B Q K B N R 
7 | P P P P P _ P P 
6 | _ _ _ _ _ _ _ _ 
5 | _ _ _ _ _ _ P _ 
4 | Q _ P N _ _ _ _ 
3 | _ _ _ P _ P _ _ 
2 | P P _ _ P _ P P 
1 | R N _ _ K B N R 
-------------------
  | A B C D E F G H 

Turn of: black
Succesful move
g8f6
8 | R _ B Q K B _ R 
7 | P P P P P _ P P 
6 | _ _ _ _ _ N _ _ 
5 | _ _ _ _ _ _ P _ 
4 | Q _ P N _ _ _ _ 
3 | _ _ _ P _ P _ _ 
2 | P P _ _ P _ P P 
1 | R N _ _ K B N R 
-------------------
  | A B C D E F G H 

Turn of: white
Succesful move
b2b3
8 | R _ B Q K B _ R 
7 | P P P P P _ P P 
6 | _ _ _ _ _ N _ _ 
5 | _ _ _ _ _ _ P _ 
4 | Q _ P N _ _ _ _ 
3 | _ P _ P _ P _ _ 
2 | P _ _ _ P _ P P 
1 | R N _ _ K B N R 
-------------------
  | A B C D E F G H 

Turn of: black
Succesful move
d4c2
8 | R _ B Q K B _ R 
7 | P P P P P _ P P 
6 | _ _ _ _ _ N _ _ 
5 | _ _ _ _ _ _ P _ 
4 | Q _ P _ _ _ _ _ 
3 | _ P _ P _ P _ _ 
2 | P _ N _ P _ P P 
1 | R N _ _ K B N R 
-------------------
  | A B C D E F G H 

We are playing as White
Move history:
d2d3
b8c6
c1g5
c6d4
c2c4
f7f6
f2f3
f6g5
d1a4
g8f6
b2b3
d4c2
8 | R _ B Q K B _ R 
7 | P P P P P _ P P 
6 | _ _ _ _ _ N _ _ 
5 | _ _ _ _ _ _ P _ 
4 | Q _ P _ _ _ _ _ 
3 | _ P _ P _ P _ _ 
2 | P _ N _ P _ P P 
1 | R N _ _ K B N R 
-------------------
  | A B C D E F G H 

It is white's turn to play.
AI's move: e1d1
Move written: e1d1
[32;1m[Game] [0mPlayer's error code: 0
[32;1m[Game] [0mChecking move validity...
[32;1m[Board] [0mInitializing board...
[32;1m[Board] [0mLoading history file `championship/lizzie-iii-blueherring/history.csv`...
[32;1m[Board] [0mLoaded 12 move(s).
[32;1m[Board] [0mLoading move file `championship/lizzie-iii-blueherring/move.csv`...
[32;1m[Board] [0mWhite player is playing e1 to d1.
[32;1m[Board] [0m
[32;1m[Board] [0m    a b c d e f g h 
[32;1m[Board] [0m  -------------------
[32;1m[Board] [0m8 ||[30;1mr[0m| |[30;1mb[0m|[30;1mQ[0m|[30;1mK[0m|[30;1mb[0m|[7;1m [0m|[30;1mr[0m|| 8
[32;1m[Board] [0m  -------------------
[32;1m[Board] [0m7 ||[30;1mp[0m|[30;1mp[0m|[30;1mp[0m|[30;1mp[0m|[30;1mp[0m|[7;1m [0m|[30;1mp[0m|[30;1mp[0m|| 7
[32;1m[Board] [0m  -------------------
[32;1m[Board] [0m6 ||[7;1m [0m| |[7;1m [0m| |[7;1m [0m|[30;1mk[0m|[7;1m [0m| || 6
[32;1m[Board] [0m  -------------------
[32;1m[Board] [0m5 || |[7;1m [0m| |[7;1m [0m| |[7;1m [0m|[30;1mp[0m|[7;1m [0m|| 5
[32;1m[Board] [0m  -------------------
[32;1m[Board] [0m4 ||[0;1mQ[0m| |[0;1mp[0m| |[7;1m [0m| |[7;1m [0m| || 4
[32;1m[Board] [0m  -------------------
[32;1m[Board] [0m3 || |[0;1mp[0m| |[0;1mp[0m| |[0;1mp[0m| |[7;1m [0m|| 3
[32;1m[Board] [0m  -------------------
[32;1m[Board] [0m2 ||[0;1mp[0m| |[30;1mk[0m| |[0;1mp[0m| |[0;1mp[0m|[0;1mp[0m|| 2
[32;1m[Board] [0m  -------------------
[32;1m[Board] [0m1 ||[0;1mr[0m|[0;1mk[0m| |[0;1mK[0m| |[0;1mb[0m|[0;1mk[0m|[0;1mr[0m|| 1
[32;1m[Board] [0m  -------------------
[32;1m[Board] [0m    a b c d e f g h
[32;1m[Board] [0m
[32;1m[Referee] [0mThis is the turn of the Black player...
[32;1m[Game] [0mPlayer's error code: 0
[32;1m[Game] [0mChecking move validity...
[32;1m[Board] [0mInitializing board...
[32;1m[Board] [0mLoading history file `championship/lizzie-iii-blueherring/history.csv`...
[32;1m[Board] [0mLoaded 13 move(s).
[32;1m[Board] [0mLoading move file `championship/lizzie-iii-blueherring/move.csv`...
[32;1m[Board] [0mBlack player is playing c2 to a1.
[32;1m[Board] [0m[5;1mBlack Knight is taking White Rook.[0m
[32;1m[Board] [0m
[32;1m[Board] [0m    a b c d e f g h 
[32;1m[Board] [0m  -------------------
[32;1m[Board] [0m8 ||[30;1mr[0m| |[30;1mb[0m|[30;1mQ[0m|[30;1mK[0m|[30;1mb[0m|[7;1m [0m|[30;1mr[0m|| 8
[32;1m[Board] [0m  -------------------
[32;1m[Board] [0m7 ||[30;1mp[0m|[30;1mp[0m|[30;1mp[0m|[30;1mp[0m|[30;1mp[0m|[7;1m [0m|[30;1mp[0m|[30;1mp[0m|| 7
[32;1m[Board] [0m  -------------------
[32;1m[Board] [0m6 ||[7;1m [0m| |[7;1m [0m| |[7;1m [0m|[30;1mk[0m|[7;1m [0m| || 6
[32;1m[Board] [0m  -------------------
[32;1m[Board] [0m5 || |[7;1m [0m| |[7;1m [0m| |[7;1m [0m|[30;1mp[0m|[7;1m [0m|| 5
[32;1m[Board] [0m  -------------------
[32;1m[Board] [0m4 ||[0;1mQ[0m| |[0;1mp[0m| |[7;1m [0m| |[7;1m [0m| || 4
[32;1m[Board] [0m  -------------------
[32;1m[Board] [0m3 || |[0;1mp[0m| |[0;1mp[0m| |[0;1mp[0m| |[7;1m [0m|| 3
[32;1m[Board] [0m  -------------------
[32;1m[Board] [0m2 ||[0;1mp[0m| |[7;1m [0m| |[0;1mp[0m| |[0;1mp[0m|[0;1mp[0m|| 2
[32;1m[Board] [0m  -------------------
[32;1m[Board] [0m1 ||[30;1mk[0m|[0;1mk[0m| |[0;1mK[0m| |[0;1mb[0m|[0;1mk[0m|[0;1mr[0m|| 1
[32;1m[Board] [0m  -------------------
[32;1m[Board] [0m    a b c d e f g h
[32;1m[Board] [0m
[32;1m[Referee] [0mThis is the turn of the White player...
Input file: championship/lizzie-iii-blueherring/history.csv
Output file: championship/lizzie-iii-blueherring/move.csv
Turn of: white
Succesful move
d2d3
8 | R N B Q K B N R 
7 | P P P P P P P P 
6 | _ _ _ _ _ _ _ _ 
5 | _ _ _ _ _ _ _ _ 
4 | _ _ _ _ _ _ _ _ 
3 | _ _ _ P _ _ _ _ 
2 | P P P _ P P P P 
1 | R N B Q K B N R 
-------------------
  | A B C D E F G H 

Turn of: black
Succesful move
b8c6
8 | R _ B Q K B N R 
7 | P P P P P P P P 
6 | _ _ N _ _ _ _ _ 
5 | _ _ _ _ _ _ _ _ 
4 | _ _ _ _ _ _ _ _ 
3 | _ _ _ P _ _ _ _ 
2 | P P P _ P P P P 
1 | R N B Q K B N R 
-------------------
  | A B C D E F G H 

Turn of: white
Succesful move
c1g5
8 | R _ B Q K B N R 
7 | P P P P P P P P 
6 | _ _ N _ _ _ _ _ 
5 | _ _ _ _ _ _ B _ 
4 | _ _ _ _ _ _ _ _ 
3 | _ _ _ P _ _ _ _ 
2 | P P P _ P P P P 
1 | R N _ Q K B N R 
-------------------
  | A B C D E F G H 

Turn of: black
Succesful move
c6d4
8 | R _ B Q K B N R 
7 | P P P P P P P P 
6 | _ _ _ _ _ _ _ _ 
5 | _ _ _ _ _ _ B _ 
4 | _ _ _ N _ _ _ _ 
3 | _ _ _ P _ _ _ _ 
2 | P P P _ P P P P 
1 | R N _ Q K B N R 
-------------------
  | A B C D E F G H 

Turn of: white
Succesful move
c2c4
8 | R _ B Q K B N R 
7 | P P P P P P P P 
6 | _ _ _ _ _ _ _ _ 
5 | _ _ _ _ _ _ B _ 
4 | _ _ P N _ _ _ _ 
3 | _ _ _ P _ _ _ _ 
2 | P P _ _ P P P P 
1 | R N _ Q K B N R 
-------------------
  | A B C D E F G H 

Turn of: black
Succesful move
f7f6
8 | R _ B Q K B N R 
7 | P P P P P _ P P 
6 | _ _ _ _ _ P _ _ 
5 | _ _ _ _ _ _ B _ 
4 | _ _ P N _ _ _ _ 
3 | _ _ _ P _ _ _ _ 
2 | P P _ _ P P P P 
1 | R N _ Q K B N R 
-------------------
  | A B C D E F G H 

Turn of: white
Succesful move
f2f3
8 | R _ B Q K B N R 
7 | P P P P P _ P P 
6 | _ _ _ _ _ P _ _ 
5 | _ _ _ _ _ _ B _ 
4 | _ _ P N _ _ _ _ 
3 | _ _ _ P _ P _ _ 
2 | P P _ _ P _ P P 
1 | R N _ Q K B N R 
-------------------
  | A B C D E F G H 

Turn of: black
Succesful move
f6g5
8 | R _ B Q K B N R 
7 | P P P P P _ P P 
6 | _ _ _ _ _ _ _ _ 
5 | _ _ _ _ _ _ P _ 
4 | _ _ P N _ _ _ _ 
3 | _ _ _ P _ P _ _ 
2 | P P _ _ P _ P P 
1 | R N _ Q K B N R 
-------------------
  | A B C D E F G H 

Turn of: white
Succesful move
d1a4
8 | R _ B Q K B N R 
7 | P P P P P _ P P 
6 | _ _ _ _ _ _ _ _ 
5 | _ _ _ _ _ _ P _ 
4 | Q _ P N _ _ _ _ 
3 | _ _ _ P _ P _ _ 
2 | P P _ _ P _ P P 
1 | R N _ _ K B N R 
-------------------
  | A B C D E F G H 

Turn of: black
Succesful move
g8f6
8 | R _ B Q K B _ R 
7 | P P P P P _ P P 
6 | _ _ _ _ _ N _ _ 
5 | _ _ _ _ _ _ P _ 
4 | Q _ P N _ _ _ _ 
3 | _ _ _ P _ P _ _ 
2 | P P _ _ P _ P P 
1 | R N _ _ K B N R 
-------------------
  | A B C D E F G H 

Turn of: white
Succesful move
b2b3
8 | R _ B Q K B _ R 
7 | P P P P P _ P P 
6 | _ _ _ _ _ N _ _ 
5 | _ _ _ _ _ _ P _ 
4 | Q _ P N _ _ _ _ 
3 | _ P _ P _ P _ _ 
2 | P _ _ _ P _ P P 
1 | R N _ _ K B N R 
-------------------
  | A B C D E F G H 

Turn of: black
Succesful move
d4c2
8 | R _ B Q K B _ R 
7 | P P P P P _ P P 
6 | _ _ _ _ _ N _ _ 
5 | _ _ _ _ _ _ P _ 
4 | Q _ P _ _ _ _ _ 
3 | _ P _ P _ P _ _ 
2 | P _ N _ P _ P P 
1 | R N _ _ K B N R 
-------------------
  | A B C D E F G H 

Turn of: white
Succesful move
e1d1
8 | R _ B Q K B _ R 
7 | P P P P P _ P P 
6 | _ _ _ _ _ N _ _ 
5 | _ _ _ _ _ _ P _ 
4 | Q _ P _ _ _ _ _ 
3 | _ P _ P _ P _ _ 
2 | P _ N _ P _ P P 
1 | R N _ K _ B N R 
-------------------
  | A B C D E F G H 

Turn of: black
Succesful move
c2a1
8 | R _ B Q K B _ R 
7 | P P P P P _ P P 
6 | _ _ _ _ _ N _ _ 
5 | _ _ _ _ _ _ P _ 
4 | Q _ P _ _ _ _ _ 
3 | _ P _ P _ P _ _ 
2 | P _ _ _ P _ P P 
1 | N N _ K _ B N R 
-------------------
  | A B C D E F G H 

We are playing as White
Move history:
d2d3
b8c6
c1g5
c6d4
c2c4
f7f6
f2f3
f6g5
d1a4
g8f6
b2b3
d4c2
e1d1
c2a1
8 | R _ B Q K B _ R 
7 | P P P P P _ P P 
6 | _ _ _ _ _ N _ _ 
5 | _ _ _ _ _ _ P _ 
4 | Q _ P _ _ _ _ _ 
3 | _ P _ P _ P _ _ 
2 | P _ _ _ P _ P P 
1 | N N _ K _ B N R 
-------------------
  | A B C D E F G H 

It is white's turn to play.
AI's move: a4a3
Move written: a4a3
[32;1m[Game] [0mPlayer's error code: 0
[32;1m[Game] [0mChecking move validity...
[32;1m[Board] [0mInitializing board...
[32;1m[Board] [0mLoading history file `championship/lizzie-iii-blueherring/history.csv`...
[32;1m[Board] [0mLoaded 14 move(s).
[32;1m[Board] [0mLoading move file `championship/lizzie-iii-blueherring/move.csv`...
[32;1m[Board] [0mWhite player is playing a4 to a3.
[32;1m[Board] [0m
[32;1m[Board] [0m    a b c d e f g h 
[32;1m[Board] [0m  -------------------
[32;1m[Board] [0m8 ||[30;1mr[0m| |[30;1mb[0m|[30;1mQ[0m|[30;1mK[0m|[30;1mb[0m|[7;1m [0m|[30;1mr[0m|| 8
[32;1m[Board] [0m  -------------------
[32;1m[Board] [0m7 ||[30;1mp[0m|[30;1mp[0m|[30;1mp[0m|[30;1mp[0m|[30;1mp[0m|[7;1m [0m|[30;1mp[0m|[30;1mp[0m|| 7
[32;1m[Board] [0m  -------------------
[32;1m[Board] [0m6 ||[7;1m [0m| |[7;1m [0m| |[7;1m [0m|[30;1mk[0m|[7;1m [0m| || 6
[32;1m[Board] [0m  -------------------
[32;1m[Board] [0m5 || |[7;1m [0m| |[7;1m [0m| |[7;1m [0m|[30;1mp[0m|[7;1m [0m|| 5
[32;1m[Board] [0m  -------------------
[32;1m[Board] [0m4 ||[7;1m [0m| |[0;1mp[0m| |[7;1m [0m| |[7;1m [0m| || 4
[32;1m[Board] [0m  -------------------
[32;1m[Board] [0m3 ||[0;1mQ[0m|[0;1mp[0m| |[0;1mp[0m| |[0;1mp[0m| |[7;1m [0m|| 3
[32;1m[Board] [0m  -------------------
[32;1m[Board] [0m2 ||[0;1mp[0m| |[7;1m [0m| |[0;1mp[0m| |[0;1mp[0m|[0;1mp[0m|| 2
[32;1m[Board] [0m  -------------------
[32;1m[Board] [0m1 ||[30;1mk[0m|[0;1mk[0m| |[0;1mK[0m| |[0;1mb[0m|[0;1mk[0m|[0;1mr[0m|| 1
[32;1m[Board] [0m  -------------------
[32;1m[Board] [0m    a b c d e f g h
[32;1m[Board] [0m
[32;1m[Referee] [0mThis is the turn of the Black player...
[32;1m[Game] [0mPlayer's error code: 0
[32;1m[Game] [0mChecking move validity...
[32;1m[Board] [0mInitializing board...
[32;1m[Board] [0mLoading history file `championship/lizzie-iii-blueherring/history.csv`...
[32;1m[Board] [0mLoaded 15 move(s).
[32;1m[Board] [0mLoading move file `championship/lizzie-iii-blueherring/move.csv`...
[32;1m[Board] [0mBlack player is playing e7 to e6.
[32;1m[Board] [0m
[32;1m[Board] [0m    a b c d e f g h 
[32;1m[Board] [0m  -------------------
[32;1m[Board] [0m8 ||[30;1mr[0m| |[30;1mb[0m|[30;1mQ[0m|[30;1mK[0m|[30;1mb[0m|[7;1m [0m|[30;1mr[0m|| 8
[32;1m[Board] [0m  -------------------
[32;1m[Board] [0m7 ||[30;1mp[0m|[30;1mp[0m|[30;1mp[0m|[30;1mp[0m| |[7;1m [0m|[30;1mp[0m|[30;1mp[0m|| 7
[32;1m[Board] [0m  -------------------
[32;1m[Board] [0m6 ||[7;1m [0m| |[7;1m [0m| |[30;1mp[0m|[30;1mk[0m|[7;1m [0m| || 6
[32;1m[Board] [0m  -------------------
[32;1m[Board] [0m5 || |[7;1m [0m| |[7;1m [0m| |[7;1m [0m|[30;1mp[0m|[7;1m [0m|| 5
[32;1m[Board] [0m  -------------------
[32;1m[Board] [0m4 ||[7;1m [0m| |[0;1mp[0m| |[7;1m [0m| |[7;1m [0m| || 4
[32;1m[Board] [0m  -------------------
[32;1m[Board] [0m3 ||[0;1mQ[0m|[0;1mp[0m| |[0;1mp[0m| |[0;1mp[0m| |[7;1m [0m|| 3
[32;1m[Board] [0m  -------------------
[32;1m[Board] [0m2 ||[0;1mp[0m| |[7;1m [0m| |[0;1mp[0m| |[0;1mp[0m|[0;1mp[0m|| 2
[32;1m[Board] [0m  -------------------
[32;1m[Board] [0m1 ||[30;1mk[0m|[0;1mk[0m| |[0;1mK[0m| |[0;1mb[0m|[0;1mk[0m|[0;1mr[0m|| 1
[32;1m[Board] [0m  -------------------
[32;1m[Board] [0m    a b c d e f g h
[32;1m[Board] [0m
[32;1m[Referee] [0mThis is the turn of the White player...
Input file: championship/lizzie-iii-blueherring/history.csv
Output file: championship/lizzie-iii-blueherring/move.csv
Turn of: white
Succesful move
d2d3
8 | R N B Q K B N R 
7 | P P P P P P P P 
6 | _ _ _ _ _ _ _ _ 
5 | _ _ _ _ _ _ _ _ 
4 | _ _ _ _ _ _ _ _ 
3 | _ _ _ P _ _ _ _ 
2 | P P P _ P P P P 
1 | R N B Q K B N R 
-------------------
  | A B C D E F G H 

Turn of: black
Succesful move
b8c6
8 | R _ B Q K B N R 
7 | P P P P P P P P 
6 | _ _ N _ _ _ _ _ 
5 | _ _ _ _ _ _ _ _ 
4 | _ _ _ _ _ _ _ _ 
3 | _ _ _ P _ _ _ _ 
2 | P P P _ P P P P 
1 | R N B Q K B N R 
-------------------
  | A B C D E F G H 

Turn of: white
Succesful move
c1g5
8 | R _ B Q K B N R 
7 | P P P P P P P P 
6 | _ _ N _ _ _ _ _ 
5 | _ _ _ _ _ _ B _ 
4 | _ _ _ _ _ _ _ _ 
3 | _ _ _ P _ _ _ _ 
2 | P P P _ P P P P 
1 | R N _ Q K B N R 
-------------------
  | A B C D E F G H 

Turn of: black
Succesful move
c6d4
8 | R _ B Q K B N R 
7 | P P P P P P P P 
6 | _ _ _ _ _ _ _ _ 
5 | _ _ _ _ _ _ B _ 
4 | _ _ _ N _ _ _ _ 
3 | _ _ _ P _ _ _ _ 
2 | P P P _ P P P P 
1 | R N _ Q K B N R 
-------------------
  | A B C D E F G H 

Turn of: white
Succesful move
c2c4
8 | R _ B Q K B N R 
7 | P P P P P P P P 
6 | _ _ _ _ _ _ _ _ 
5 | _ _ _ _ _ _ B _ 
4 | _ _ P N _ _ _ _ 
3 | _ _ _ P _ _ _ _ 
2 | P P _ _ P P P P 
1 | R N _ Q K B N R 
-------------------
  | A B C D E F G H 

Turn of: black
Succesful move
f7f6
8 | R _ B Q K B N R 
7 | P P P P P _ P P 
6 | _ _ _ _ _ P _ _ 
5 | _ _ _ _ _ _ B _ 
4 | _ _ P N _ _ _ _ 
3 | _ _ _ P _ _ _ _ 
2 | P P _ _ P P P P 
1 | R N _ Q K B N R 
-------------------
  | A B C D E F G H 

Turn of: white
Succesful move
f2f3
8 | R _ B Q K B N R 
7 | P P P P P _ P P 
6 | _ _ _ _ _ P _ _ 
5 | _ _ _ _ _ _ B _ 
4 | _ _ P N _ _ _ _ 
3 | _ _ _ P _ P _ _ 
2 | P P _ _ P _ P P 
1 | R N _ Q K B N R 
-------------------
  | A B C D E F G H 

Turn of: black
Succesful move
f6g5
8 | R _ B Q K B N R 
7 | P P P P P _ P P 
6 | _ _ _ _ _ _ _ _ 
5 | _ _ _ _ _ _ P _ 
4 | _ _ P N _ _ _ _ 
3 | _ _ _ P _ P _ _ 
2 | P P _ _ P _ P P 
1 | R N _ Q K B N R 
-------------------
  | A B C D E F G H 

Turn of: white
Succesful move
d1a4
8 | R _ B Q K B N R 
7 | P P P P P _ P P 
6 | _ _ _ _ _ _ _ _ 
5 | _ _ _ _ _ _ P _ 
4 | Q _ P N _ _ _ _ 
3 | _ _ _ P _ P _ _ 
2 | P P _ _ P _ P P 
1 | R N _ _ K B N R 
-------------------
  | A B C D E F G H 

Turn of: black
Succesful move
g8f6
8 | R _ B Q K B _ R 
7 | P P P P P _ P P 
6 | _ _ _ _ _ N _ _ 
5 | _ _ _ _ _ _ P _ 
4 | Q _ P N _ _ _ _ 
3 | _ _ _ P _ P _ _ 
2 | P P _ _ P _ P P 
1 | R N _ _ K B N R 
-------------------
  | A B C D E F G H 

Turn of: white
Succesful move
b2b3
8 | R _ B Q K B _ R 
7 | P P P P P _ P P 
6 | _ _ _ _ _ N _ _ 
5 | _ _ _ _ _ _ P _ 
4 | Q _ P N _ _ _ _ 
3 | _ P _ P _ P _ _ 
2 | P _ _ _ P _ P P 
1 | R N _ _ K B N R 
-------------------
  | A B C D E F G H 

Turn of: black
Succesful move
d4c2
8 | R _ B Q K B _ R 
7 | P P P P P _ P P 
6 | _ _ _ _ _ N _ _ 
5 | _ _ _ _ _ _ P _ 
4 | Q _ P _ _ _ _ _ 
3 | _ P _ P _ P _ _ 
2 | P _ N _ P _ P P 
1 | R N _ _ K B N R 
-------------------
  | A B C D E F G H 

Turn of: white
Succesful move
e1d1
8 | R _ B Q K B _ R 
7 | P P P P P _ P P 
6 | _ _ _ _ _ N _ _ 
5 | _ _ _ _ _ _ P _ 
4 | Q _ P _ _ _ _ _ 
3 | _ P _ P _ P _ _ 
2 | P _ N _ P _ P P 
1 | R N _ K _ B N R 
-------------------
  | A B C D E F G H 

Turn of: black
Succesful move
c2a1
8 | R _ B Q K B _ R 
7 | P P P P P _ P P 
6 | _ _ _ _ _ N _ _ 
5 | _ _ _ _ _ _ P _ 
4 | Q _ P _ _ _ _ _ 
3 | _ P _ P _ P _ _ 
2 | P _ _ _ P _ P P 
1 | N N _ K _ B N R 
-------------------
  | A B C D E F G H 

Turn of: white
Succesful move
a4a3
8 | R _ B Q K B _ R 
7 | P P P P P _ P P 
6 | _ _ _ _ _ N _ _ 
5 | _ _ _ _ _ _ P _ 
4 | _ _ P _ _ _ _ _ 
3 | Q P _ P _ P _ _ 
2 | P _ _ _ P _ P P 
1 | N N _ K _ B N R 
-------------------
  | A B C D E F G H 

Turn of: black
Succesful move
e7e6
8 | R _ B Q K B _ R 
7 | P P P P _ _ P P 
6 | _ _ _ _ P N _ _ 
5 | _ _ _ _ _ _ P _ 
4 | _ _ P _ _ _ _ _ 
3 | Q P _ P _ P _ _ 
2 | P _ _ _ P _ P P 
1 | N N _ K _ B N R 
-------------------
  | A B C D E F G H 

We are playing as White
Move history:
d2d3
b8c6
c1g5
c6d4
c2c4
f7f6
f2f3
f6g5
d1a4
g8f6
b2b3
d4c2
e1d1
c2a1
a4a3
e7e6
8 | R _ B Q K B _ R 
7 | P P P P _ _ P P 
6 | _ _ _ _ P N _ _ 
5 | _ _ _ _ _ _ P _ 
4 | _ _ P _ _ _ _ _ 
3 | Q P _ P _ P _ _ 
2 | P _ _ _ P _ P P 
1 | N N _ K _ B N R 
-------------------
  | A B C D E F G H 

It is white's turn to play.
AI's move: f3f4
Move written: f3f4
[32;1m[Game] [0mPlayer's error code: 0
[32;1m[Game] [0mChecking move validity...
[32;1m[Board] [0mInitializing board...
[32;1m[Board] [0mLoading history file `championship/lizzie-iii-blueherring/history.csv`...
[32;1m[Board] [0mLoaded 16 move(s).
[32;1m[Board] [0mLoading move file `championship/lizzie-iii-blueherring/move.csv`...
[32;1m[Board] [0mWhite player is playing f3 to f4.
[32;1m[Board] [0m
[32;1m[Board] [0m    a b c d e f g h 
[32;1m[Board] [0m  -------------------
[32;1m[Board] [0m8 ||[30;1mr[0m| |[30;1mb[0m|[30;1mQ[0m|[30;1mK[0m|[30;1mb[0m|[7;1m [0m|[30;1mr[0m|| 8
[32;1m[Board] [0m  -------------------
[32;1m[Board] [0m7 ||[30;1mp[0m|[30;1mp[0m|[30;1mp[0m|[30;1mp[0m| |[7;1m [0m|[30;1mp[0m|[30;1mp[0m|| 7
[32;1m[Board] [0m  -------------------
[32;1m[Board] [0m6 ||[7;1m [0m| |[7;1m [0m| |[30;1mp[0m|[30;1mk[0m|[7;1m [0m| || 6
[32;1m[Board] [0m  -------------------
[32;1m[Board] [0m5 || |[7;1m [0m| |[7;1m [0m| |[7;1m [0m|[30;1mp[0m|[7;1m [0m|| 5
[32;1m[Board] [0m  -------------------
[32;1m[Board] [0m4 ||[7;1m [0m| |[0;1mp[0m| |[7;1m [0m|[0;1mp[0m|[7;1m [0m| || 4
[32;1m[Board] [0m  -------------------
[32;1m[Board] [0m3 ||[0;1mQ[0m|[0;1mp[0m| |[0;1mp[0m| |[7;1m [0m| |[7;1m [0m|| 3
[32;1m[Board] [0m  -------------------
[32;1m[Board] [0m2 ||[0;1mp[0m| |[7;1m [0m| |[0;1mp[0m| |[0;1mp[0m|[0;1mp[0m|| 2
[32;1m[Board] [0m  -------------------
[32;1m[Board] [0m1 ||[30;1mk[0m|[0;1mk[0m| |[0;1mK[0m| |[0;1mb[0m|[0;1mk[0m|[0;1mr[0m|| 1
[32;1m[Board] [0m  -------------------
[32;1m[Board] [0m    a b c d e f g h
[32;1m[Board] [0m
[32;1m[Referee] [0mThis is the turn of the Black player...
[32;1m[Game] [0mPlayer's error code: 0
[32;1m[Game] [0mChecking move validity...
[32;1m[Board] [0mInitializing board...
[32;1m[Board] [0mLoading history file `championship/lizzie-iii-blueherring/history.csv`...
[32;1m[Board] [0mLoaded 17 move(s).
[32;1m[Board] [0mLoading move file `championship/lizzie-iii-blueherring/move.csv`...
[32;1m[Board] [0mBlack player is playing f8 to a3.
[32;1m[Board] [0m[5;1mBlack Bishop is taking White Queen.[0m
[32;1m[Board] [0m
[32;1m[Board] [0m    a b c d e f g h 
[32;1m[Board] [0m  -------------------
[32;1m[Board] [0m8 ||[30;1mr[0m| |[30;1mb[0m|[30;1mQ[0m|[30;1mK[0m| |[7;1m [0m|[30;1mr[0m|| 8
[32;1m[Board] [0m  -------------------
[32;1m[Board] [0m7 ||[30;1mp[0m|[30;1mp[0m|[30;1mp[0m|[30;1mp[0m| |[7;1m [0m|[30;1mp[0m|[30;1mp[0m|| 7
[32;1m[Board] [0m  -------------------
[32;1m[Board] [0m6 ||[7;1m [0m| |[7;1m [0m| |[30;1mp[0m|[30;1mk[0m|[7;1m [0m| || 6
[32;1m[Board] [0m  -------------------
[32;1m[Board] [0m5 || |[7;1m [0m| |[7;1m [0m| |[7;1m [0m|[30;1mp[0m|[7;1m [0m|| 5
[32;1m[Board] [0m  -------------------
[32;1m[Board] [0m4 ||[7;1m [0m| |[0;1mp[0m| |[7;1m [0m|[0;1mp[0m|[7;1m [0m| || 4
[32;1m[Board] [0m  -------------------
[32;1m[Board] [0m3 ||[30;1mb[0m|[0;1mp[0m| |[0;1mp[0m| |[7;1m [0m| |[7;1m [0m|| 3
[32;1m[Board] [0m  -------------------
[32;1m[Board] [0m2 ||[0;1mp[0m| |[7;1m [0m| |[0;1mp[0m| |[0;1mp[0m|[0;1mp[0m|| 2
[32;1m[Board] [0m  -------------------
[32;1m[Board] [0m1 ||[30;1mk[0m|[0;1mk[0m| |[0;1mK[0m| |[0;1mb[0m|[0;1mk[0m|[0;1mr[0m|| 1
[32;1m[Board] [0m  -------------------
[32;1m[Board] [0m    a b c d e f g h
[32;1m[Board] [0m
[32;1m[Referee] [0mThis is the turn of the White player...
Input file: championship/lizzie-iii-blueherring/history.csv
Output file: championship/lizzie-iii-blueherring/move.csv
Turn of: white
Succesful move
d2d3
8 | R N B Q K B N R 
7 | P P P P P P P P 
6 | _ _ _ _ _ _ _ _ 
5 | _ _ _ _ _ _ _ _ 
4 | _ _ _ _ _ _ _ _ 
3 | _ _ _ P _ _ _ _ 
2 | P P P _ P P P P 
1 | R N B Q K B N R 
-------------------
  | A B C D E F G H 

Turn of: black
Succesful move
b8c6
8 | R _ B Q K B N R 
7 | P P P P P P P P 
6 | _ _ N _ _ _ _ _ 
5 | _ _ _ _ _ _ _ _ 
4 | _ _ _ _ _ _ _ _ 
3 | _ _ _ P _ _ _ _ 
2 | P P P _ P P P P 
1 | R N B Q K B N R 
-------------------
  | A B C D E F G H 

Turn of: white
Succesful move
c1g5
8 | R _ B Q K B N R 
7 | P P P P P P P P 
6 | _ _ N _ _ _ _ _ 
5 | _ _ _ _ _ _ B _ 
4 | _ _ _ _ _ _ _ _ 
3 | _ _ _ P _ _ _ _ 
2 | P P P _ P P P P 
1 | R N _ Q K B N R 
-------------------
  | A B C D E F G H 

Turn of: black
Succesful move
c6d4
8 | R _ B Q K B N R 
7 | P P P P P P P P 
6 | _ _ _ _ _ _ _ _ 
5 | _ _ _ _ _ _ B _ 
4 | _ _ _ N _ _ _ _ 
3 | _ _ _ P _ _ _ _ 
2 | P P P _ P P P P 
1 | R N _ Q K B N R 
-------------------
  | A B C D E F G H 

Turn of: white
Succesful move
c2c4
8 | R _ B Q K B N R 
7 | P P P P P P P P 
6 | _ _ _ _ _ _ _ _ 
5 | _ _ _ _ _ _ B _ 
4 | _ _ P N _ _ _ _ 
3 | _ _ _ P _ _ _ _ 
2 | P P _ _ P P P P 
1 | R N _ Q K B N R 
-------------------
  | A B C D E F G H 

Turn of: black
Succesful move
f7f6
8 | R _ B Q K B N R 
7 | P P P P P _ P P 
6 | _ _ _ _ _ P _ _ 
5 | _ _ _ _ _ _ B _ 
4 | _ _ P N _ _ _ _ 
3 | _ _ _ P _ _ _ _ 
2 | P P _ _ P P P P 
1 | R N _ Q K B N R 
-------------------
  | A B C D E F G H 

Turn of: white
Succesful move
f2f3
8 | R _ B Q K B N R 
7 | P P P P P _ P P 
6 | _ _ _ _ _ P _ _ 
5 | _ _ _ _ _ _ B _ 
4 | _ _ P N _ _ _ _ 
3 | _ _ _ P _ P _ _ 
2 | P P _ _ P _ P P 
1 | R N _ Q K B N R 
-------------------
  | A B C D E F G H 

Turn of: black
Succesful move
f6g5
8 | R _ B Q K B N R 
7 | P P P P P _ P P 
6 | _ _ _ _ _ _ _ _ 
5 | _ _ _ _ _ _ P _ 
4 | _ _ P N _ _ _ _ 
3 | _ _ _ P _ P _ _ 
2 | P P _ _ P _ P P 
1 | R N _ Q K B N R 
-------------------
  | A B C D E F G H 

Turn of: white
Succesful move
d1a4
8 | R _ B Q K B N R 
7 | P P P P P _ P P 
6 | _ _ _ _ _ _ _ _ 
5 | _ _ _ _ _ _ P _ 
4 | Q _ P N _ _ _ _ 
3 | _ _ _ P _ P _ _ 
2 | P P _ _ P _ P P 
1 | R N _ _ K B N R 
-------------------
  | A B C D E F G H 

Turn of: black
Succesful move
g8f6
8 | R _ B Q K B _ R 
7 | P P P P P _ P P 
6 | _ _ _ _ _ N _ _ 
5 | _ _ _ _ _ _ P _ 
4 | Q _ P N _ _ _ _ 
3 | _ _ _ P _ P _ _ 
2 | P P _ _ P _ P P 
1 | R N _ _ K B N R 
-------------------
  | A B C D E F G H 

Turn of: white
Succesful move
b2b3
8 | R _ B Q K B _ R 
7 | P P P P P _ P P 
6 | _ _ _ _ _ N _ _ 
5 | _ _ _ _ _ _ P _ 
4 | Q _ P N _ _ _ _ 
3 | _ P _ P _ P _ _ 
2 | P _ _ _ P _ P P 
1 | R N _ _ K B N R 
-------------------
  | A B C D E F G H 

Turn of: black
Succesful move
d4c2
8 | R _ B Q K B _ R 
7 | P P P P P _ P P 
6 | _ _ _ _ _ N _ _ 
5 | _ _ _ _ _ _ P _ 
4 | Q _ P _ _ _ _ _ 
3 | _ P _ P _ P _ _ 
2 | P _ N _ P _ P P 
1 | R N _ _ K B N R 
-------------------
  | A B C D E F G H 

Turn of: white
Succesful move
e1d1
8 | R _ B Q K B _ R 
7 | P P P P P _ P P 
6 | _ _ _ _ _ N _ _ 
5 | _ _ _ _ _ _ P _ 
4 | Q _ P _ _ _ _ _ 
3 | _ P _ P _ P _ _ 
2 | P _ N _ P _ P P 
1 | R N _ K _ B N R 
-------------------
  | A B C D E F G H 

Turn of: black
Succesful move
c2a1
8 | R _ B Q K B _ R 
7 | P P P P P _ P P 
6 | _ _ _ _ _ N _ _ 
5 | _ _ _ _ _ _ P _ 
4 | Q _ P _ _ _ _ _ 
3 | _ P _ P _ P _ _ 
2 | P _ _ _ P _ P P 
1 | N N _ K _ B N R 
-------------------
  | A B C D E F G H 

Turn of: white
Succesful move
a4a3
8 | R _ B Q K B _ R 
7 | P P P P P _ P P 
6 | _ _ _ _ _ N _ _ 
5 | _ _ _ _ _ _ P _ 
4 | _ _ P _ _ _ _ _ 
3 | Q P _ P _ P _ _ 
2 | P _ _ _ P _ P P 
1 | N N _ K _ B N R 
-------------------
  | A B C D E F G H 

Turn of: black
Succesful move
e7e6
8 | R _ B Q K B _ R 
7 | P P P P _ _ P P 
6 | _ _ _ _ P N _ _ 
5 | _ _ _ _ _ _ P _ 
4 | _ _ P _ _ _ _ _ 
3 | Q P _ P _ P _ _ 
2 | P _ _ _ P _ P P 
1 | N N _ K _ B N R 
-------------------
  | A B C D E F G H 

Turn of: white
Succesful move
f3f4
8 | R _ B Q K B _ R 
7 | P P P P _ _ P P 
6 | _ _ _ _ P N _ _ 
5 | _ _ _ _ _ _ P _ 
4 | _ _ P _ _ P _ _ 
3 | Q P _ P _ _ _ _ 
2 | P _ _ _ P _ P P 
1 | N N _ K _ B N R 
-------------------
  | A B C D E F G H 

Turn of: black
Succesful move
f8a3
8 | R _ B Q K _ _ R 
7 | P P P P _ _ P P 
6 | _ _ _ _ P N _ _ 
5 | _ _ _ _ _ _ P _ 
4 | _ _ P _ _ P _ _ 
3 | B P _ P _ _ _ _ 
2 | P _ _ _ P _ P P 
1 | N N _ K _ B N R 
-------------------
  | A B C D E F G H 

We are playing as White
Move history:
d2d3
b8c6
c1g5
c6d4
c2c4
f7f6
f2f3
f6g5
d1a4
g8f6
b2b3
d4c2
e1d1
c2a1
a4a3
e7e6
f3f4
f8a3
8 | R _ B Q K _ _ R 
7 | P P P P _ _ P P 
6 | _ _ _ _ P N _ _ 
5 | _ _ _ _ _ _ P _ 
4 | _ _ P _ _ P _ _ 
3 | B P _ P _ _ _ _ 
2 | P _ _ _ P _ P P 
1 | N N _ K _ B N R 
-------------------
  | A B C D E F G H 

It is white's turn to play.
AI's move: h2h3
Move written: h2h3
[32;1m[Game] [0mPlayer's error code: 0
[32;1m[Game] [0mChecking move validity...
[32;1m[Board] [0mInitializing board...
[32;1m[Board] [0mLoading history file `championship/lizzie-iii-blueherring/history.csv`...
[32;1m[Board] [0mLoaded 18 move(s).
[32;1m[Board] [0mLoading move file `championship/lizzie-iii-blueherring/move.csv`...
[32;1m[Board] [0mWhite player is playing h2 to h3.
[32;1m[Board] [0m
[32;1m[Board] [0m    a b c d e f g h 
[32;1m[Board] [0m  -------------------
[32;1m[Board] [0m8 ||[30;1mr[0m| |[30;1mb[0m|[30;1mQ[0m|[30;1mK[0m| |[7;1m [0m|[30;1mr[0m|| 8
[32;1m[Board] [0m  -------------------
[32;1m[Board] [0m7 ||[30;1mp[0m|[30;1mp[0m|[30;1mp[0m|[30;1mp[0m| |[7;1m [0m|[30;1mp[0m|[30;1mp[0m|| 7
[32;1m[Board] [0m  -------------------
[32;1m[Board] [0m6 ||[7;1m [0m| |[7;1m [0m| |[30;1mp[0m|[30;1mk[0m|[7;1m [0m| || 6
[32;1m[Board] [0m  -------------------
[32;1m[Board] [0m5 || |[7;1m [0m| |[7;1m [0m| |[7;1m [0m|[30;1mp[0m|[7;1m [0m|| 5
[32;1m[Board] [0m  -------------------
[32;1m[Board] [0m4 ||[7;1m [0m| |[0;1mp[0m| |[7;1m [0m|[0;1mp[0m|[7;1m [0m| || 4
[32;1m[Board] [0m  -------------------
[32;1m[Board] [0m3 ||[30;1mb[0m|[0;1mp[0m| |[0;1mp[0m| |[7;1m [0m| |[0;1mp[0m|| 3
[32;1m[Board] [0m  -------------------
[32;1m[Board] [0m2 ||[0;1mp[0m| |[7;1m [0m| |[0;1mp[0m| |[0;1mp[0m| || 2
[32;1m[Board] [0m  -------------------
[32;1m[Board] [0m1 ||[30;1mk[0m|[0;1mk[0m| |[0;1mK[0m| |[0;1mb[0m|[0;1mk[0m|[0;1mr[0m|| 1
[32;1m[Board] [0m  -------------------
[32;1m[Board] [0m    a b c d e f g h
[32;1m[Board] [0m
[32;1m[Referee] [0mThis is the turn of the Black player...
[32;1m[Game] [0mPlayer's error code: 0
[32;1m[Game] [0mChecking move validity...
[32;1m[Board] [0mInitializing board...
[32;1m[Board] [0mLoading history file `championship/lizzie-iii-blueherring/history.csv`...
[32;1m[Board] [0mLoaded 19 move(s).
[32;1m[Board] [0mLoading move file `championship/lizzie-iii-blueherring/move.csv`...
[32;1m[Board] [0mBlack player is playing a3 to c5.
[32;1m[Board] [0m
[32;1m[Board] [0m    a b c d e f g h 
[32;1m[Board] [0m  -------------------
[32;1m[Board] [0m8 ||[30;1mr[0m| |[30;1mb[0m|[30;1mQ[0m|[30;1mK[0m| |[7;1m [0m|[30;1mr[0m|| 8
[32;1m[Board] [0m  -------------------
[32;1m[Board] [0m7 ||[30;1mp[0m|[30;1mp[0m|[30;1mp[0m|[30;1mp[0m| |[7;1m [0m|[30;1mp[0m|[30;1mp[0m|| 7
[32;1m[Board] [0m  -------------------
[32;1m[Board] [0m6 ||[7;1m [0m| |[7;1m [0m| |[30;1mp[0m|[30;1mk[0m|[7;1m [0m| || 6
[32;1m[Board] [0m  -------------------
[32;1m[Board] [0m5 || |[7;1m [0m|[30;1mb[0m|[7;1m [0m| |[7;1m [0m|[30;1mp[0m|[7;1m [0m|| 5
[32;1m[Board] [0m  -------------------
[32;1m[Board] [0m4 ||[7;1m [0m| |[0;1mp[0m| |[7;1m [0m|[0;1mp[0m|[7;1m [0m| || 4
[32;1m[Board] [0m  -------------------
[32;1m[Board] [0m3 || |[0;1mp[0m| |[0;1mp[0m| |[7;1m [0m| |[0;1mp[0m|| 3
[32;1m[Board] [0m  -------------------
[32;1m[Board] [0m2 ||[0;1mp[0m| |[7;1m [0m| |[0;1mp[0m| |[0;1mp[0m| || 2
[32;1m[Board] [0m  -------------------
[32;1m[Board] [0m1 ||[30;1mk[0m|[0;1mk[0m| |[0;1mK[0m| |[0;1mb[0m|[0;1mk[0m|[0;1mr[0m|| 1
[32;1m[Board] [0m  -------------------
[32;1m[Board] [0m    a b c d e f g h
[32;1m[Board] [0m
[32;1m[Referee] [0mThis is the turn of the White player...
Input file: championship/lizzie-iii-blueherring/history.csv
Output file: championship/lizzie-iii-blueherring/move.csv
Turn of: white
Succesful move
d2d3
8 | R N B Q K B N R 
7 | P P P P P P P P 
6 | _ _ _ _ _ _ _ _ 
5 | _ _ _ _ _ _ _ _ 
4 | _ _ _ _ _ _ _ _ 
3 | _ _ _ P _ _ _ _ 
2 | P P P _ P P P P 
1 | R N B Q K B N R 
-------------------
  | A B C D E F G H 

Turn of: black
Succesful move
b8c6
8 | R _ B Q K B N R 
7 | P P P P P P P P 
6 | _ _ N _ _ _ _ _ 
5 | _ _ _ _ _ _ _ _ 
4 | _ _ _ _ _ _ _ _ 
3 | _ _ _ P _ _ _ _ 
2 | P P P _ P P P P 
1 | R N B Q K B N R 
-------------------
  | A B C D E F G H 

Turn of: white
Succesful move
c1g5
8 | R _ B Q K B N R 
7 | P P P P P P P P 
6 | _ _ N _ _ _ _ _ 
5 | _ _ _ _ _ _ B _ 
4 | _ _ _ _ _ _ _ _ 
3 | _ _ _ P _ _ _ _ 
2 | P P P _ P P P P 
1 | R N _ Q K B N R 
-------------------
  | A B C D E F G H 

Turn of: black
Succesful move
c6d4
8 | R _ B Q K B N R 
7 | P P P P P P P P 
6 | _ _ _ _ _ _ _ _ 
5 | _ _ _ _ _ _ B _ 
4 | _ _ _ N _ _ _ _ 
3 | _ _ _ P _ _ _ _ 
2 | P P P _ P P P P 
1 | R N _ Q K B N R 
-------------------
  | A B C D E F G H 

Turn of: white
Succesful move
c2c4
8 | R _ B Q K B N R 
7 | P P P P P P P P 
6 | _ _ _ _ _ _ _ _ 
5 | _ _ _ _ _ _ B _ 
4 | _ _ P N _ _ _ _ 
3 | _ _ _ P _ _ _ _ 
2 | P P _ _ P P P P 
1 | R N _ Q K B N R 
-------------------
  | A B C D E F G H 

Turn of: black
Succesful move
f7f6
8 | R _ B Q K B N R 
7 | P P P P P _ P P 
6 | _ _ _ _ _ P _ _ 
5 | _ _ _ _ _ _ B _ 
4 | _ _ P N _ _ _ _ 
3 | _ _ _ P _ _ _ _ 
2 | P P _ _ P P P P 
1 | R N _ Q K B N R 
-------------------
  | A B C D E F G H 

Turn of: white
Succesful move
f2f3
8 | R _ B Q K B N R 
7 | P P P P P _ P P 
6 | _ _ _ _ _ P _ _ 
5 | _ _ _ _ _ _ B _ 
4 | _ _ P N _ _ _ _ 
3 | _ _ _ P _ P _ _ 
2 | P P _ _ P _ P P 
1 | R N _ Q K B N R 
-------------------
  | A B C D E F G H 

Turn of: black
Succesful move
f6g5
8 | R _ B Q K B N R 
7 | P P P P P _ P P 
6 | _ _ _ _ _ _ _ _ 
5 | _ _ _ _ _ _ P _ 
4 | _ _ P N _ _ _ _ 
3 | _ _ _ P _ P _ _ 
2 | P P _ _ P _ P P 
1 | R N _ Q K B N R 
-------------------
  | A B C D E F G H 

Turn of: white
Succesful move
d1a4
8 | R _ B Q K B N R 
7 | P P P P P _ P P 
6 | _ _ _ _ _ _ _ _ 
5 | _ _ _ _ _ _ P _ 
4 | Q _ P N _ _ _ _ 
3 | _ _ _ P _ P _ _ 
2 | P P _ _ P _ P P 
1 | R N _ _ K B N R 
-------------------
  | A B C D E F G H 

Turn of: black
Succesful move
g8f6
8 | R _ B Q K B _ R 
7 | P P P P P _ P P 
6 | _ _ _ _ _ N _ _ 
5 | _ _ _ _ _ _ P _ 
4 | Q _ P N _ _ _ _ 
3 | _ _ _ P _ P _ _ 
2 | P P _ _ P _ P P 
1 | R N _ _ K B N R 
-------------------
  | A B C D E F G H 

Turn of: white
Succesful move
b2b3
8 | R _ B Q K B _ R 
7 | P P P P P _ P P 
6 | _ _ _ _ _ N _ _ 
5 | _ _ _ _ _ _ P _ 
4 | Q _ P N _ _ _ _ 
3 | _ P _ P _ P _ _ 
2 | P _ _ _ P _ P P 
1 | R N _ _ K B N R 
-------------------
  | A B C D E F G H 

Turn of: black
Succesful move
d4c2
8 | R _ B Q K B _ R 
7 | P P P P P _ P P 
6 | _ _ _ _ _ N _ _ 
5 | _ _ _ _ _ _ P _ 
4 | Q _ P _ _ _ _ _ 
3 | _ P _ P _ P _ _ 
2 | P _ N _ P _ P P 
1 | R N _ _ K B N R 
-------------------
  | A B C D E F G H 

Turn of: white
Succesful move
e1d1
8 | R _ B Q K B _ R 
7 | P P P P P _ P P 
6 | _ _ _ _ _ N _ _ 
5 | _ _ _ _ _ _ P _ 
4 | Q _ P _ _ _ _ _ 
3 | _ P _ P _ P _ _ 
2 | P _ N _ P _ P P 
1 | R N _ K _ B N R 
-------------------
  | A B C D E F G H 

Turn of: black
Succesful move
c2a1
8 | R _ B Q K B _ R 
7 | P P P P P _ P P 
6 | _ _ _ _ _ N _ _ 
5 | _ _ _ _ _ _ P _ 
4 | Q _ P _ _ _ _ _ 
3 | _ P _ P _ P _ _ 
2 | P _ _ _ P _ P P 
1 | N N _ K _ B N R 
-------------------
  | A B C D E F G H 

Turn of: white
Succesful move
a4a3
8 | R _ B Q K B _ R 
7 | P P P P P _ P P 
6 | _ _ _ _ _ N _ _ 
5 | _ _ _ _ _ _ P _ 
4 | _ _ P _ _ _ _ _ 
3 | Q P _ P _ P _ _ 
2 | P _ _ _ P _ P P 
1 | N N _ K _ B N R 
-------------------
  | A B C D E F G H 

Turn of: black
Succesful move
e7e6
8 | R _ B Q K B _ R 
7 | P P P P _ _ P P 
6 | _ _ _ _ P N _ _ 
5 | _ _ _ _ _ _ P _ 
4 | _ _ P _ _ _ _ _ 
3 | Q P _ P _ P _ _ 
2 | P _ _ _ P _ P P 
1 | N N _ K _ B N R 
-------------------
  | A B C D E F G H 

Turn of: white
Succesful move
f3f4
8 | R _ B Q K B _ R 
7 | P P P P _ _ P P 
6 | _ _ _ _ P N _ _ 
5 | _ _ _ _ _ _ P _ 
4 | _ _ P _ _ P _ _ 
3 | Q P _ P _ _ _ _ 
2 | P _ _ _ P _ P P 
1 | N N _ K _ B N R 
-------------------
  | A B C D E F G H 

Turn of: black
Succesful move
f8a3
8 | R _ B Q K _ _ R 
7 | P P P P _ _ P P 
6 | _ _ _ _ P N _ _ 
5 | _ _ _ _ _ _ P _ 
4 | _ _ P _ _ P _ _ 
3 | B P _ P _ _ _ _ 
2 | P _ _ _ P _ P P 
1 | N N _ K _ B N R 
-------------------
  | A B C D E F G H 

Turn of: white
Succesful move
h2h3
8 | R _ B Q K _ _ R 
7 | P P P P _ _ P P 
6 | _ _ _ _ P N _ _ 
5 | _ _ _ _ _ _ P _ 
4 | _ _ P _ _ P _ _ 
3 | B P _ P _ _ _ P 
2 | P _ _ _ P _ P _ 
1 | N N _ K _ B N R 
-------------------
  | A B C D E F G H 

Turn of: black
Succesful move
a3c5
8 | R _ B Q K _ _ R 
7 | P P P P _ _ P P 
6 | _ _ _ _ P N _ _ 
5 | _ _ B _ _ _ P _ 
4 | _ _ P _ _ P _ _ 
3 | _ P _ P _ _ _ P 
2 | P _ _ _ P _ P _ 
1 | N N _ K _ B N R 
-------------------
  | A B C D E F G H 

We are playing as White
Move history:
d2d3
b8c6
c1g5
c6d4
c2c4
f7f6
f2f3
f6g5
d1a4
g8f6
b2b3
d4c2
e1d1
c2a1
a4a3
e7e6
f3f4
f8a3
h2h3
a3c5
8 | R _ B Q K _ _ R 
7 | P P P P _ _ P P 
6 | _ _ _ _ P N _ _ 
5 | _ _ B _ _ _ P _ 
4 | _ _ P _ _ P _ _ 
3 | _ P _ P _ _ _ P 
2 | P _ _ _ P _ P _ 
1 | N N _ K _ B N R 
-------------------
  | A B C D E F G H 

It is white's turn to play.
AI's move: d1e1
Move written: d1e1
[32;1m[Game] [0mPlayer's error code: 0
[32;1m[Game] [0mChecking move validity...
[32;1m[Board] [0mInitializing board...
[32;1m[Board] [0mLoading history file `championship/lizzie-iii-blueherring/history.csv`...
[32;1m[Board] [0mLoaded 20 move(s).
[32;1m[Board] [0mLoading move file `championship/lizzie-iii-blueherring/move.csv`...
[32;1m[Board] [0mWhite player is playing d1 to e1.
[32;1m[Board] [0m
[32;1m[Board] [0m    a b c d e f g h 
[32;1m[Board] [0m  -------------------
[32;1m[Board] [0m8 ||[30;1mr[0m| |[30;1mb[0m|[30;1mQ[0m|[30;1mK[0m| |[7;1m [0m|[30;1mr[0m|| 8
[32;1m[Board] [0m  -------------------
[32;1m[Board] [0m7 ||[30;1mp[0m|[30;1mp[0m|[30;1mp[0m|[30;1mp[0m| |[7;1m [0m|[30;1mp[0m|[30;1mp[0m|| 7
[32;1m[Board] [0m  -------------------
[32;1m[Board] [0m6 ||[7;1m [0m| |[7;1m [0m| |[30;1mp[0m|[30;1mk[0m|[7;1m [0m| || 6
[32;1m[Board] [0m  -------------------
[32;1m[Board] [0m5 || |[7;1m [0m|[30;1mb[0m|[7;1m [0m| |[7;1m [0m|[30;1mp[0m|[7;1m [0m|| 5
[32;1m[Board] [0m  -------------------
[32;1m[Board] [0m4 ||[7;1m [0m| |[0;1mp[0m| |[7;1m [0m|[0;1mp[0m|[7;1m [0m| || 4
[32;1m[Board] [0m  -------------------
[32;1m[Board] [0m3 || |[0;1mp[0m| |[0;1mp[0m| |[7;1m [0m| |[0;1mp[0m|| 3
[32;1m[Board] [0m  -------------------
[32;1m[Board] [0m2 ||[0;1mp[0m| |[7;1m [0m| |[0;1mp[0m| |[0;1mp[0m| || 2
[32;1m[Board] [0m  -------------------
[32;1m[Board] [0m1 ||[30;1mk[0m|[0;1mk[0m| |[7;1m [0m|[0;1mK[0m|[0;1mb[0m|[0;1mk[0m|[0;1mr[0m|| 1
[32;1m[Board] [0m  -------------------
[32;1m[Board] [0m    a b c d e f g h
[32;1m[Board] [0m
[32;1m[Referee] [0mThis is the turn of the Black player...
[32;1m[Game] [0mPlayer's error code: 0
[32;1m[Game] [0mChecking move validity...
[32;1m[Board] [0mInitializing board...
[32;1m[Board] [0mLoading history file `championship/lizzie-iii-blueherring/history.csv`...
[32;1m[Board] [0mLoaded 21 move(s).
[32;1m[Board] [0mLoading move file `championship/lizzie-iii-blueherring/move.csv`...
[32;1m[Board] [0mBlack player is playing a1 to c2.
[32;1m[Board] [0m
[32;1m[Board] [0m    a b c d e f g h 
[32;1m[Board] [0m  -------------------
[32;1m[Board] [0m8 ||[30;1mr[0m| |[30;1mb[0m|[30;1mQ[0m|[30;1mK[0m| |[7;1m [0m|[30;1mr[0m|| 8
[32;1m[Board] [0m  -------------------
[32;1m[Board] [0m7 ||[30;1mp[0m|[30;1mp[0m|[30;1mp[0m|[30;1mp[0m| |[7;1m [0m|[30;1mp[0m|[30;1mp[0m|| 7
[32;1m[Board] [0m  -------------------
[32;1m[Board] [0m6 ||[7;1m [0m| |[7;1m [0m| |[30;1mp[0m|[30;1mk[0m|[7;1m [0m| || 6
[32;1m[Board] [0m  -------------------
[32;1m[Board] [0m5 || |[7;1m [0m|[30;1mb[0m|[7;1m [0m| |[7;1m [0m|[30;1mp[0m|[7;1m [0m|| 5
[32;1m[Board] [0m  -------------------
[32;1m[Board] [0m4 ||[7;1m [0m| |[0;1mp[0m| |[7;1m [0m|[0;1mp[0m|[7;1m [0m| || 4
[32;1m[Board] [0m  -------------------
[32;1m[Board] [0m3 || |[0;1mp[0m| |[0;1mp[0m| |[7;1m [0m| |[0;1mp[0m|| 3
[32;1m[Board] [0m  -------------------
[32;1m[Board] [0m2 ||[0;1mp[0m| |[30;1mk[0m| |[0;1mp[0m| |[0;1mp[0m| || 2
[32;1m[Board] [0m  -------------------
[32;1m[Board] [0m1 || |[0;1mk[0m| |[7;1m [0m|[0;1mK[0m|[0;1mb[0m|[0;1mk[0m|[0;1mr[0m|| 1
[32;1m[Board] [0m  -------------------
[32;1m[Board] [0m    a b c d e f g h
[32;1m[Board] [0m
[32;1m[Referee] [0mThis is the turn of the White player...
[32;1m[Board] [0m[33;1m[WARNING][0m [5;1mWhite King in check![0m
[32;1m[Board] [0m[33;1m[WARNING][0m    Threatened by Black Knight (c2)
Input file: championship/lizzie-iii-blueherring/history.csv
Output file: championship/lizzie-iii-blueherring/move.csv
Turn of: white
Succesful move
d2d3
8 | R N B Q K B N R 
7 | P P P P P P P P 
6 | _ _ _ _ _ _ _ _ 
5 | _ _ _ _ _ _ _ _ 
4 | _ _ _ _ _ _ _ _ 
3 | _ _ _ P _ _ _ _ 
2 | P P P _ P P P P 
1 | R N B Q K B N R 
-------------------
  | A B C D E F G H 

Turn of: black
Succesful move
b8c6
8 | R _ B Q K B N R 
7 | P P P P P P P P 
6 | _ _ N _ _ _ _ _ 
5 | _ _ _ _ _ _ _ _ 
4 | _ _ _ _ _ _ _ _ 
3 | _ _ _ P _ _ _ _ 
2 | P P P _ P P P P 
1 | R N B Q K B N R 
-------------------
  | A B C D E F G H 

Turn of: white
Succesful move
c1g5
8 | R _ B Q K B N R 
7 | P P P P P P P P 
6 | _ _ N _ _ _ _ _ 
5 | _ _ _ _ _ _ B _ 
4 | _ _ _ _ _ _ _ _ 
3 | _ _ _ P _ _ _ _ 
2 | P P P _ P P P P 
1 | R N _ Q K B N R 
-------------------
  | A B C D E F G H 

Turn of: black
Succesful move
c6d4
8 | R _ B Q K B N R 
7 | P P P P P P P P 
6 | _ _ _ _ _ _ _ _ 
5 | _ _ _ _ _ _ B _ 
4 | _ _ _ N _ _ _ _ 
3 | _ _ _ P _ _ _ _ 
2 | P P P _ P P P P 
1 | R N _ Q K B N R 
-------------------
  | A B C D E F G H 

Turn of: white
Succesful move
c2c4
8 | R _ B Q K B N R 
7 | P P P P P P P P 
6 | _ _ _ _ _ _ _ _ 
5 | _ _ _ _ _ _ B _ 
4 | _ _ P N _ _ _ _ 
3 | _ _ _ P _ _ _ _ 
2 | P P _ _ P P P P 
1 | R N _ Q K B N R 
-------------------
  | A B C D E F G H 

Turn of: black
Succesful move
f7f6
8 | R _ B Q K B N R 
7 | P P P P P _ P P 
6 | _ _ _ _ _ P _ _ 
5 | _ _ _ _ _ _ B _ 
4 | _ _ P N _ _ _ _ 
3 | _ _ _ P _ _ _ _ 
2 | P P _ _ P P P P 
1 | R N _ Q K B N R 
-------------------
  | A B C D E F G H 

Turn of: white
Succesful move
f2f3
8 | R _ B Q K B N R 
7 | P P P P P _ P P 
6 | _ _ _ _ _ P _ _ 
5 | _ _ _ _ _ _ B _ 
4 | _ _ P N _ _ _ _ 
3 | _ _ _ P _ P _ _ 
2 | P P _ _ P _ P P 
1 | R N _ Q K B N R 
-------------------
  | A B C D E F G H 

Turn of: black
Succesful move
f6g5
8 | R _ B Q K B N R 
7 | P P P P P _ P P 
6 | _ _ _ _ _ _ _ _ 
5 | _ _ _ _ _ _ P _ 
4 | _ _ P N _ _ _ _ 
3 | _ _ _ P _ P _ _ 
2 | P P _ _ P _ P P 
1 | R N _ Q K B N R 
-------------------
  | A B C D E F G H 

Turn of: white
Succesful move
d1a4
8 | R _ B Q K B N R 
7 | P P P P P _ P P 
6 | _ _ _ _ _ _ _ _ 
5 | _ _ _ _ _ _ P _ 
4 | Q _ P N _ _ _ _ 
3 | _ _ _ P _ P _ _ 
2 | P P _ _ P _ P P 
1 | R N _ _ K B N R 
-------------------
  | A B C D E F G H 

Turn of: black
Succesful move
g8f6
8 | R _ B Q K B _ R 
7 | P P P P P _ P P 
6 | _ _ _ _ _ N _ _ 
5 | _ _ _ _ _ _ P _ 
4 | Q _ P N _ _ _ _ 
3 | _ _ _ P _ P _ _ 
2 | P P _ _ P _ P P 
1 | R N _ _ K B N R 
-------------------
  | A B C D E F G H 

Turn of: white
Succesful move
b2b3
8 | R _ B Q K B _ R 
7 | P P P P P _ P P 
6 | _ _ _ _ _ N _ _ 
5 | _ _ _ _ _ _ P _ 
4 | Q _ P N _ _ _ _ 
3 | _ P _ P _ P _ _ 
2 | P _ _ _ P _ P P 
1 | R N _ _ K B N R 
-------------------
  | A B C D E F G H 

Turn of: black
Succesful move
d4c2
8 | R _ B Q K B _ R 
7 | P P P P P _ P P 
6 | _ _ _ _ _ N _ _ 
5 | _ _ _ _ _ _ P _ 
4 | Q _ P _ _ _ _ _ 
3 | _ P _ P _ P _ _ 
2 | P _ N _ P _ P P 
1 | R N _ _ K B N R 
-------------------
  | A B C D E F G H 

Turn of: white
Succesful move
e1d1
8 | R _ B Q K B _ R 
7 | P P P P P _ P P 
6 | _ _ _ _ _ N _ _ 
5 | _ _ _ _ _ _ P _ 
4 | Q _ P _ _ _ _ _ 
3 | _ P _ P _ P _ _ 
2 | P _ N _ P _ P P 
1 | R N _ K _ B N R 
-------------------
  | A B C D E F G H 

Turn of: black
Succesful move
c2a1
8 | R _ B Q K B _ R 
7 | P P P P P _ P P 
6 | _ _ _ _ _ N _ _ 
5 | _ _ _ _ _ _ P _ 
4 | Q _ P _ _ _ _ _ 
3 | _ P _ P _ P _ _ 
2 | P _ _ _ P _ P P 
1 | N N _ K _ B N R 
-------------------
  | A B C D E F G H 

Turn of: white
Succesful move
a4a3
8 | R _ B Q K B _ R 
7 | P P P P P _ P P 
6 | _ _ _ _ _ N _ _ 
5 | _ _ _ _ _ _ P _ 
4 | _ _ P _ _ _ _ _ 
3 | Q P _ P _ P _ _ 
2 | P _ _ _ P _ P P 
1 | N N _ K _ B N R 
-------------------
  | A B C D E F G H 

Turn of: black
Succesful move
e7e6
8 | R _ B Q K B _ R 
7 | P P P P _ _ P P 
6 | _ _ _ _ P N _ _ 
5 | _ _ _ _ _ _ P _ 
4 | _ _ P _ _ _ _ _ 
3 | Q P _ P _ P _ _ 
2 | P _ _ _ P _ P P 
1 | N N _ K _ B N R 
-------------------
  | A B C D E F G H 

Turn of: white
Succesful move
f3f4
8 | R _ B Q K B _ R 
7 | P P P P _ _ P P 
6 | _ _ _ _ P N _ _ 
5 | _ _ _ _ _ _ P _ 
4 | _ _ P _ _ P _ _ 
3 | Q P _ P _ _ _ _ 
2 | P _ _ _ P _ P P 
1 | N N _ K _ B N R 
-------------------
  | A B C D E F G H 

Turn of: black
Succesful move
f8a3
8 | R _ B Q K _ _ R 
7 | P P P P _ _ P P 
6 | _ _ _ _ P N _ _ 
5 | _ _ _ _ _ _ P _ 
4 | _ _ P _ _ P _ _ 
3 | B P _ P _ _ _ _ 
2 | P _ _ _ P _ P P 
1 | N N _ K _ B N R 
-------------------
  | A B C D E F G H 

Turn of: white
Succesful move
h2h3
8 | R _ B Q K _ _ R 
7 | P P P P _ _ P P 
6 | _ _ _ _ P N _ _ 
5 | _ _ _ _ _ _ P _ 
4 | _ _ P _ _ P _ _ 
3 | B P _ P _ _ _ P 
2 | P _ _ _ P _ P _ 
1 | N N _ K _ B N R 
-------------------
  | A B C D E F G H 

Turn of: black
Succesful move
a3c5
8 | R _ B Q K _ _ R 
7 | P P P P _ _ P P 
6 | _ _ _ _ P N _ _ 
5 | _ _ B _ _ _ P _ 
4 | _ _ P _ _ P _ _ 
3 | _ P _ P _ _ _ P 
2 | P _ _ _ P _ P _ 
1 | N N _ K _ B N R 
-------------------
  | A B C D E F G H 

Turn of: white
Succesful move
d1e1
8 | R _ B Q K _ _ R 
7 | P P P P _ _ P P 
6 | _ _ _ _ P N _ _ 
5 | _ _ B _ _ _ P _ 
4 | _ _ P _ _ P _ _ 
3 | _ P _ P _ _ _ P 
2 | P _ _ _ P _ P _ 
1 | N N _ _ K B N R 
-------------------
  | A B C D E F G H 

Turn of: black
Succesful move
a1c2
8 | R _ B Q K _ _ R 
7 | P P P P _ _ P P 
6 | _ _ _ _ P N _ _ 
5 | _ _ B _ _ _ P _ 
4 | _ _ P _ _ P _ _ 
3 | _ P _ P _ _ _ P 
2 | P _ N _ P _ P _ 
1 | _ N _ _ K B N R 
-------------------
  | A B C D E F G H 

We are playing as White
Move history:
d2d3
b8c6
c1g5
c6d4
c2c4
f7f6
f2f3
f6g5
d1a4
g8f6
b2b3
d4c2
e1d1
c2a1
a4a3
e7e6
f3f4
f8a3
h2h3
a3c5
d1e1
a1c2
8 | R _ B Q K _ _ R 
7 | P P P P _ _ P P 
6 | _ _ _ _ P N _ _ 
5 | _ _ B _ _ _ P _ 
4 | _ _ P _ _ P _ _ 
3 | _ P _ P _ _ _ P 
2 | P _ N _ P _ P _ 
1 | _ N _ _ K B N R 
-------------------
  | A B C D E F G H 

It is white's turn to play.
AI's move: e1d2
Move written: e1d2
[32;1m[Game] [0mPlayer's error code: 0
[32;1m[Game] [0mChecking move validity...
[32;1m[Board] [0mInitializing board...
[32;1m[Board] [0mLoading history file `championship/lizzie-iii-blueherring/history.csv`...
[32;1m[Board] [0mLoaded 22 move(s).
[32;1m[Board] [0mLoading move file `championship/lizzie-iii-blueherring/move.csv`...
[32;1m[Board] [0mWhite player is playing e1 to d2.
[32;1m[Board] [0m
[32;1m[Board] [0m    a b c d e f g h 
[32;1m[Board] [0m  -------------------
[32;1m[Board] [0m8 ||[30;1mr[0m| |[30;1mb[0m|[30;1mQ[0m|[30;1mK[0m| |[7;1m [0m|[30;1mr[0m|| 8
[32;1m[Board] [0m  -------------------
[32;1m[Board] [0m7 ||[30;1mp[0m|[30;1mp[0m|[30;1mp[0m|[30;1mp[0m| |[7;1m [0m|[30;1mp[0m|[30;1mp[0m|| 7
[32;1m[Board] [0m  -------------------
[32;1m[Board] [0m6 ||[7;1m [0m| |[7;1m [0m| |[30;1mp[0m|[30;1mk[0m|[7;1m [0m| || 6
[32;1m[Board] [0m  -------------------
[32;1m[Board] [0m5 || |[7;1m [0m|[30;1mb[0m|[7;1m [0m| |[7;1m [0m|[30;1mp[0m|[7;1m [0m|| 5
[32;1m[Board] [0m  -------------------
[32;1m[Board] [0m4 ||[7;1m [0m| |[0;1mp[0m| |[7;1m [0m|[0;1mp[0m|[7;1m [0m| || 4
[32;1m[Board] [0m  -------------------
[...]
2 | P P P _ P P P P 
1 | R N B Q K B N R 
-------------------
  | A B C D E F G H 

Turn of: white
Succesful move
c1g5
8 | R _ B Q K B N R 
7 | P P P P P P P P 
6 | _ _ N _ _ _ _ _ 
5 | _ _ _ _ _ _ B _ 
4 | _ _ _ _ _ _ _ _ 
3 | _ _ _ P _ _ _ _ 
2 | P P P _ P P P P 
1 | R N _ Q K B N R 
-------------------
  | A B C D E F G H 

Turn of: black
Succesful move
c6d4
8 | R _ B Q K B N R 
7 | P P P P P P P P 
6 | _ _ _ _ _ _ _ _ 
5 | _ _ _ _ _ _ B _ 
4 | _ _ _ N _ _ _ _ 
3 | _ _ _ P _ _ _ _ 
2 | P P P _ P P P P 
1 | R N _ Q K B N R 
-------------------
  | A B C D E F G H 

Turn of: white
Succesful move
c2c4
8 | R _ B Q K B N R 
7 | P P P P P P P P 
6 | _ _ _ _ _ _ _ _ 
5 | _ _ _ _ _ _ B _ 
4 | _ _ P N _ _ _ _ 
3 | _ _ _ P _ _ _ _ 
2 | P P _ _ P P P P 
1 | R N _ Q K B N R 
-------------------
  | A B C D E F G H 

Turn of: black
Succesful move
f7f6
8 | R _ B Q K B N R 
7 | P P P P P _ P P 
6 | _ _ _ _ _ P _ _ 
5 | _ _ _ _ _ _ B _ 
4 | _ _ P N _ _ _ _ 
3 | _ _ _ P _ _ _ _ 
2 | P P _ _ P P P P 
1 | R N _ Q K B N R 
-------------------
  | A B C D E F G H 

Turn of: white
Succesful move
f2f3
8 | R _ B Q K B N R 
7 | P P P P P _ P P 
6 | _ _ _ _ _ P _ _ 
5 | _ _ _ _ _ _ B _ 
4 | _ _ P N _ _ _ _ 
3 | _ _ _ P _ P _ _ 
2 | P P _ _ P _ P P 
1 | R N _ Q K B N R 
-------------------
  | A B C D E F G H 

Turn of: black
Succesful move
f6g5
8 | R _ B Q K B N R 
7 | P P P P P _ P P 
6 | _ _ _ _ _ _ _ _ 
5 | _ _ _ _ _ _ P _ 
4 | _ _ P N _ _ _ _ 
3 | _ _ _ P _ P _ _ 
2 | P P _ _ P _ P P 
1 | R N _ Q K B N R 
-------------------
  | A B C D E F G H 

Turn of: white
Succesful move
d1a4
8 | R _ B Q K B N R 
7 | P P P P P _ P P 
6 | _ _ _ _ _ _ _ _ 
5 | _ _ _ _ _ _ P _ 
4 | Q _ P N _ _ _ _ 
3 | _ _ _ P _ P _ _ 
2 | P P _ _ P _ P P 
1 | R N _ _ K B N R 
-------------------
  | A B C D E F G H 

Turn of: black
Succesful move
g8f6
8 | R _ B Q K B _ R 
7 | P P P P P _ P P 
6 | _ _ _ _ _ N _ _ 
5 | _ _ _ _ _ _ P _ 
4 | Q _ P N _ _ _ _ 
3 | _ _ _ P _ P _ _ 
2 | P P _ _ P _ P P 
1 | R N _ _ K B N R 
-------------------
  | A B C D E F G H 

Turn of: white
Succesful move
b2b3
8 | R _ B Q K B _ R 
7 | P P P P P _ P P 
6 | _ _ _ _ _ N _ _ 
5 | _ _ _ _ _ _ P _ 
4 | Q _ P N _ _ _ _ 
3 | _ P _ P _ P _ _ 
2 | P _ _ _ P _ P P 
1 | R N _ _ K B N R 
-------------------
  | A B C D E F G H 

Turn of: black
Succesful move
d4c2
8 | R _ B Q K B _ R 
7 | P P P P P _ P P 
6 | _ _ _ _ _ N _ _ 
5 | _ _ _ _ _ _ P _ 
4 | Q _ P _ _ _ _ _ 
3 | _ P _ P _ P _ _ 
2 | P _ N _ P _ P P 
1 | R N _ _ K B N R 
-------------------
  | A B C D E F G H 

Turn of: white
Succesful move
e1d1
8 | R _ B Q K B _ R 
7 | P P P P P _ P P 
6 | _ _ _ _ _ N _ _ 
5 | _ _ _ _ _ _ P _ 
4 | Q _ P _ _ _ _ _ 
3 | _ P _ P _ P _ _ 
2 | P _ N _ P _ P P 
1 | R N _ K _ B N R 
-------------------
  | A B C D E F G H 

Turn of: black
Succesful move
c2a1
8 | R _ B Q K B _ R 
7 | P P P P P _ P P 
6 | _ _ _ _ _ N _ _ 
5 | _ _ _ _ _ _ P _ 
4 | Q _ P _ _ _ _ _ 
3 | _ P _ P _ P _ _ 
2 | P _ _ _ P _ P P 
1 | N N _ K _ B N R 
-------------------
  | A B C D E F G H 

Turn of: white
Succesful move
a4a3
8 | R _ B Q K B _ R 
7 | P P P P P _ P P 
6 | _ _ _ _ _ N _ _ 
5 | _ _ _ _ _ _ P _ 
4 | _ _ P _ _ _ _ _ 
3 | Q P _ P _ P _ _ 
2 | P _ _ _ P _ P P 
1 | N N _ K _ B N R 
-------------------
  | A B C D E F G H 

Turn of: black
Succesful move
e7e6
8 | R _ B Q K B _ R 
7 | P P P P _ _ P P 
6 | _ _ _ _ P N _ _ 
5 | _ _ _ _ _ _ P _ 
4 | _ _ P _ _ _ _ _ 
3 | Q P _ P _ P _ _ 
2 | P _ _ _ P _ P P 
1 | N N _ K _ B N R 
-------------------
  | A B C D E F G H 

Turn of: white
Succesful move
f3f4
8 | R _ B Q K B _ R 
7 | P P P P _ _ P P 
6 | _ _ _ _ P N _ _ 
5 | _ _ _ _ _ _ P _ 
4 | _ _ P _ _ P _ _ 
3 | Q P _ P _ _ _ _ 
2 | P _ _ _ P _ P P 
1 | N N _ K _ B N R 
-------------------
  | A B C D E F G H 

Turn of: black
Succesful move
f8a3
8 | R _ B Q K _ _ R 
7 | P P P P _ _ P P 
6 | _ _ _ _ P N _ _ 
5 | _ _ _ _ _ _ P _ 
4 | _ _ P _ _ P _ _ 
3 | B P _ P _ _ _ _ 
2 | P _ _ _ P _ P P 
1 | N N _ K _ B N R 
-------------------
  | A B C D E F G H 

Turn of: white
Succesful move
h2h3
8 | R _ B Q K _ _ R 
7 | P P P P _ _ P P 
6 | _ _ _ _ P N _ _ 
5 | _ _ _ _ _ _ P _ 
4 | _ _ P _ _ P _ _ 
3 | B P _ P _ _ _ P 
2 | P _ _ _ P _ P _ 
1 | N N _ K _ B N R 
-------------------
  | A B C D E F G H 

Turn of: black
Succesful move
a3c5
8 | R _ B Q K _ _ R 
7 | P P P P _ _ P P 
6 | _ _ _ _ P N _ _ 
5 | _ _ B _ _ _ P _ 
4 | _ _ P _ _ P _ _ 
3 | _ P _ P _ _ _ P 
2 | P _ _ _ P _ P _ 
1 | N N _ K _ B N R 
-------------------
  | A B C D E F G H 

Turn of: white
Succesful move
d1e1
8 | R _ B Q K _ _ R 
7 | P P P P _ _ P P 
6 | _ _ _ _ P N _ _ 
5 | _ _ B _ _ _ P _ 
4 | _ _ P _ _ P _ _ 
3 | _ P _ P _ _ _ P 
2 | P _ _ _ P _ P _ 
1 | N N _ _ K B N R 
-------------------
  | A B C D E F G H 

Turn of: black
Succesful move
a1c2
8 | R _ B Q K _ _ R 
7 | P P P P _ _ P P 
6 | _ _ _ _ P N _ _ 
5 | _ _ B _ _ _ P _ 
4 | _ _ P _ _ P _ _ 
3 | _ P _ P _ _ _ P 
2 | P _ N _ P _ P _ 
1 | _ N _ _ K B N R 
-------------------
  | A B C D E F G H 

Turn of: white
Succesful move
e1d2
8 | R _ B Q K _ _ R 
7 | P P P P _ _ P P 
6 | _ _ _ _ P N _ _ 
5 | _ _ B _ _ _ P _ 
4 | _ _ P _ _ P _ _ 
3 | _ P _ P _ _ _ P 
2 | P _ N K P _ P _ 
1 | _ N _ _ _ B N R 
-------------------
  | A B C D E F G H 

Turn of: black
Succesful move
c2e3
8 | R _ B Q K _ _ R 
7 | P P P P _ _ P P 
6 | _ _ _ _ P N _ _ 
5 | _ _ B _ _ _ P _ 
4 | _ _ P _ _ P _ _ 
3 | _ P _ P N _ _ P 
2 | P _ _ K P _ P _ 
1 | _ N _ _ _ B N R 
-------------------
  | A B C D E F G H 

Turn of: white
Succesful move
d2c3
8 | R _ B Q K _ _ R 
7 | P P P P _ _ P P 
6 | _ _ _ _ P N _ _ 
5 | _ _ B _ _ _ P _ 
4 | _ _ P _ _ P _ _ 
3 | _ P K P N _ _ P 
2 | P _ _ _ P _ P _ 
1 | _ N _ _ _ B N R 
-------------------
  | A B C D E F G H 

Turn of: black
Succesful move
e3f1
8 | R _ B Q K _ _ R 
7 | P P P P _ _ P P 
6 | _ _ _ _ P N _ _ 
5 | _ _ B _ _ _ P _ 
4 | _ _ P _ _ P _ _ 
3 | _ P K P _ _ _ P 
2 | P _ _ _ P _ P _ 
1 | _ N _ _ _ N N R 
-------------------
  | A B C D E F G H 

Turn of: white
Succesful move
f4f5
8 | R _ B Q K _ _ R 
7 | P P P P _ _ P P 
6 | _ _ _ _ P N _ _ 
5 | _ _ B _ _ P P _ 
4 | _ _ P _ _ _ _ _ 
3 | _ P K P _ _ _ P 
2 | P _ _ _ P _ P _ 
1 | _ N _ _ _ N N R 
-------------------
  | A B C D E F G H 

Turn of: black
Succesful move
f1g3
8 | R _ B Q K _ _ R 
7 | P P P P _ _ P P 
6 | _ _ _ _ P N _ _ 
5 | _ _ B _ _ P P _ 
4 | _ _ P _ _ _ _ _ 
3 | _ P K P _ _ N P 
2 | P _ _ _ P _ P _ 
1 | _ N _ _ _ _ N R 
-------------------
  | A B C D E F G H 

Turn of: white
Succesful move
e2e3
8 | R _ B Q K _ _ R 
7 | P P P P _ _ P P 
6 | _ _ _ _ P N _ _ 
5 | _ _ B _ _ P P _ 
4 | _ _ P _ _ _ _ _ 
3 | _ P K P P _ N P 
2 | P _ _ _ _ _ P _ 
1 | _ N _ _ _ _ N R 
-------------------
  | A B C D E F G H 

Turn of: black
Succesful move
g3h1
8 | R _ B Q K _ _ R 
7 | P P P P _ _ P P 
6 | _ _ _ _ P N _ _ 
5 | _ _ B _ _ P P _ 
4 | _ _ P _ _ _ _ _ 
3 | _ P K P P _ _ P 
2 | P _ _ _ _ _ P _ 
1 | _ N _ _ _ _ N N 
-------------------
  | A B C D E F G H 

Turn of: white
Succesful move
a2a3
8 | R _ B Q K _ _ R 
7 | P P P P _ _ P P 
6 | _ _ _ _ P N _ _ 
5 | _ _ B _ _ P P _ 
4 | _ _ P _ _ _ _ _ 
3 | P P K P P _ _ P 
2 | _ _ _ _ _ _ P _ 
1 | _ N _ _ _ _ N N 
-------------------
  | A B C D E F G H 

Turn of: black
Succesful move
c5e3
8 | R _ B Q K _ _ R 
7 | P P P P _ _ P P 
6 | _ _ _ _ P N _ _ 
5 | _ _ _ _ _ P P _ 
4 | _ _ P _ _ _ _ _ 
3 | P P K P B _ _ P 
2 | _ _ _ _ _ _ P _ 
1 | _ N _ _ _ _ N N 
-------------------
  | A B C D E F G H 

Turn of: white
Succesful move
b3b4
8 | R _ B Q K _ _ R 
7 | P P P P _ _ P P 
6 | _ _ _ _ P N _ _ 
5 | _ _ _ _ _ P P _ 
4 | _ P P _ _ _ _ _ 
3 | P _ K P B _ _ P 
2 | _ _ _ _ _ _ P _ 
1 | _ N _ _ _ _ N N 
-------------------
  | A B C D E F G H 

Turn of: black
Succesful move
e3g1
8 | R _ B Q K _ _ R 
7 | P P P P _ _ P P 
6 | _ _ _ _ P N _ _ 
5 | _ _ _ _ _ P P _ 
4 | _ P P _ _ _ _ _ 
3 | P _ K P _ _ _ P 
2 | _ _ _ _ _ _ P _ 
1 | _ N _ _ _ _ B N 
-------------------
  | A B C D E F G H 

Turn of: white
Succesful move
g2g4
8 | R _ B Q K _ _ R 
7 | P P P P _ _ P P 
6 | _ _ _ _ P N _ _ 
5 | _ _ _ _ _ P P _ 
4 | _ P P _ _ _ P _ 
3 | P _ K P _ _ _ P 
2 | _ _ _ _ _ _ _ _ 
1 | _ N _ _ _ _ B N 
-------------------
  | A B C D E F G H 

Turn of: black
Succesful move
h1f2
8 | R _ B Q K _ _ R 
7 | P P P P _ _ P P 
6 | _ _ _ _ P N _ _ 
5 | _ _ _ _ _ P P _ 
4 | _ P P _ _ _ P _ 
3 | P _ K P _ _ _ P 
2 | _ _ _ _ _ N _ _ 
1 | _ N _ _ _ _ B _ 
-------------------
  | A B C D E F G H 

Turn of: white
Succesful move
c3d2
8 | R _ B Q K _ _ R 
7 | P P P P _ _ P P 
6 | _ _ _ _ P N _ _ 
5 | _ _ _ _ _ P P _ 
4 | _ P P _ _ _ P _ 
3 | P _ _ P _ _ _ P 
2 | _ _ _ K _ N _ _ 
1 | _ N _ _ _ _ B _ 
-------------------
  | A B C D E F G H 

Turn of: black
Succesful move
e6f5
8 | R _ B Q K _ _ R 
7 | P P P P _ _ P P 
6 | _ _ _ _ _ N _ _ 
5 | _ _ _ _ _ P P _ 
4 | _ P P _ _ _ P _ 
3 | P _ _ P _ _ _ P 
2 | _ _ _ K _ N _ _ 
1 | _ N _ _ _ _ B _ 
-------------------
  | A B C D E F G H 

Turn of: white
Succesful move
d2c1
8 | R _ B Q K _ _ R 
7 | P P P P _ _ P P 
6 | _ _ _ _ _ N _ _ 
5 | _ _ _ _ _ P P _ 
4 | _ P P _ _ _ P _ 
3 | P _ _ P _ _ _ P 
2 | _ _ _ _ _ N _ _ 
1 | _ N K _ _ _ B _ 
-------------------
  | A B C D E F G H 

Turn of: black
Succesful move
f2d3
8 | R _ B Q K _ _ R 
7 | P P P P _ _ P P 
6 | _ _ _ _ _ N _ _ 
5 | _ _ _ _ _ P P _ 
4 | _ P P _ _ _ P _ 
3 | P _ _ N _ _ _ P 
2 | _ _ _ _ _ _ _ _ 
1 | _ N K _ _ _ B _ 
-------------------
  | A B C D E F G H 

Turn of: white
Succesful move
c1c2
8 | R _ B Q K _ _ R 
7 | P P P P _ _ P P 
6 | _ _ _ _ _ N _ _ 
5 | _ _ _ _ _ P P _ 
4 | _ P P _ _ _ P _ 
3 | P _ _ N _ _ _ P 
2 | _ _ K _ _ _ _ _ 
1 | _ N _ _ _ _ B _ 
-------------------
  | A B C D E F G H 

Turn of: black
Succesful move
d3e1
8 | R _ B Q K _ _ R 
7 | P P P P _ _ P P 
6 | _ _ _ _ _ N _ _ 
5 | _ _ _ _ _ P P _ 
4 | _ P P _ _ _ P _ 
3 | P _ _ _ _ _ _ P 
2 | _ _ K _ _ _ _ _ 
1 | _ N _ _ N _ B _ 
-------------------
  | A B C D E F G H 

Turn of: white
Succesful move
c2b3
8 | R _ B Q K _ _ R 
7 | P P P P _ _ P P 
6 | _ _ _ _ _ N _ _ 
5 | _ _ _ _ _ P P _ 
4 | _ P P _ _ _ P _ 
3 | P K _ _ _ _ _ P 
2 | _ _ _ _ _ _ _ _ 
1 | _ N _ _ N _ B _ 
-------------------
  | A B C D E F G H 

Turn of: black
Succesful move
f5g4
8 | R _ B Q K _ _ R 
7 | P P P P _ _ P P 
6 | _ _ _ _ _ N _ _ 
5 | _ _ _ _ _ _ P _ 
4 | _ P P _ _ _ P _ 
3 | P K _ _ _ _ _ P 
2 | _ _ _ _ _ _ _ _ 
1 | _ N _ _ N _ B _ 
-------------------
  | A B C D E F G H 

Turn of: white
Succesful move
b3a4
8 | R _ B Q K _ _ R 
7 | P P P P _ _ P P 
6 | _ _ _ _ _ N _ _ 
5 | _ _ _ _ _ _ P _ 
4 | K P P _ _ _ P _ 
3 | P _ _ _ _ _ _ P 
2 | _ _ _ _ _ _ _ _ 
1 | _ N _ _ N _ B _ 
-------------------
  | A B C D E F G H 

Turn of: black
Succesful move
g4h3
8 | R _ B Q K _ _ R 
7 | P P P P _ _ P P 
6 | _ _ _ _ _ N _ _ 
5 | _ _ _ _ _ _ P _ 
4 | K P P _ _ _ _ _ 
3 | P _ _ _ _ _ _ P 
2 | _ _ _ _ _ _ _ _ 
1 | _ N _ _ N _ B _ 
-------------------
  | A B C D E F G H 

Turn of: white
Succesful move
a4b3
8 | R _ B Q K _ _ R 
7 | P P P P _ _ P P 
6 | _ _ _ _ _ N _ _ 
5 | _ _ _ _ _ _ P _ 
4 | _ P P _ _ _ _ _ 
3 | P K _ _ _ _ _ P 
2 | _ _ _ _ _ _ _ _ 
1 | _ N _ _ N _ B _ 
-------------------
  | A B C D E F G H 

Turn of: black
Succesful move
h3h2
8 | R _ B Q K _ _ R 
7 | P P P P _ _ P P 
6 | _ _ _ _ _ N _ _ 
5 | _ _ _ _ _ _ P _ 
4 | _ P P _ _ _ _ _ 
3 | P K _ _ _ _ _ _ 
2 | _ _ _ _ _ _ _ P 
1 | _ N _ _ N _ B _ 
-------------------
  | A B C D E F G H 

Turn of: white
Succesful move
b3a2
8 | R _ B Q K _ _ R 
7 | P P P P _ _ P P 
6 | _ _ _ _ _ N _ _ 
5 | _ _ _ _ _ _ P _ 
4 | _ P P _ _ _ _ _ 
3 | P _ _ _ _ _ _ _ 
2 | K _ _ _ _ _ _ P 
1 | _ N _ _ N _ B _ 
-------------------
  | A B C D E F G H 

Turn of: black
Succesful move
e1d3
8 | R _ B Q K _ _ R 
7 | P P P P _ _ P P 
6 | _ _ _ _ _ N _ _ 
5 | _ _ _ _ _ _ P _ 
4 | _ P P _ _ _ _ _ 
3 | P _ _ N _ _ _ _ 
2 | K _ _ _ _ _ _ P 
1 | _ N _ _ _ _ B _ 
-------------------
  | A B C D E F G H 

Turn of: white
Succesful move
b1d2
8 | R _ B Q K _ _ R 
7 | P P P P _ _ P P 
6 | _ _ _ _ _ N _ _ 
5 | _ _ _ _ _ _ P _ 
4 | _ P P _ _ _ _ _ 
3 | P _ _ N _ _ _ _ 
2 | K _ _ N _ _ _ P 
1 | _ _ _ _ _ _ B _ 
-------------------
  | A B C D E F G H 

Turn of: black
Succesful move
h2h1q
8 | R _ B Q K _ _ R 
7 | P P P P _ _ P P 
6 | _ _ _ _ _ N _ _ 
5 | _ _ _ _ _ _ P _ 
4 | _ P P _ _ _ _ _ 
3 | P _ _ N _ _ _ _ 
2 | K _ _ N _ _ _ _ 
1 | _ _ _ _ _ _ B Q 
-------------------
  | A B C D E F G H 

Turn of: white
Succesful move
a2b1
8 | R _ B Q K _ _ R 
7 | P P P P _ _ P P 
6 | _ _ _ _ _ N _ _ 
5 | _ _ _ _ _ _ P _ 
4 | _ P P _ _ _ _ _ 
3 | P _ _ N _ _ _ _ 
2 | _ _ _ N _ _ _ _ 
1 | _ K _ _ _ _ B Q 
-------------------
  | A B C D E F G H 

Turn of: black
Succesful move
g1e3
8 | R _ B Q K _ _ R 
7 | P P P P _ _ P P 
6 | _ _ _ _ _ N _ _ 
5 | _ _ _ _ _ _ P _ 
4 | _ P P _ _ _ _ _ 
3 | P _ _ N B _ _ _ 
2 | _ _ _ N _ _ _ _ 
1 | _ K _ _ _ _ _ Q 
-------------------
  | A B C D E F G H 

Turn of: white
Succesful move
b1c2
8 | R _ B Q K _ _ R 
7 | P P P P _ _ P P 
6 | _ _ _ _ _ N _ _ 
5 | _ _ _ _ _ _ P _ 
4 | _ P P _ _ _ _ _ 
3 | P _ _ N B _ _ _ 
2 | _ _ K N _ _ _ _ 
1 | _ _ _ _ _ _ _ Q 
-------------------
  | A B C D E F G H 

Turn of: black
Succesful move
d3e1
8 | R _ B Q K _ _ R 
7 | P P P P _ _ P P 
6 | _ _ _ _ _ N _ _ 
5 | _ _ _ _ _ _ P _ 
4 | _ P P _ _ _ _ _ 
3 | P _ _ _ B _ _ _ 
2 | _ _ K N _ _ _ _ 
1 | _ _ _ _ N _ _ Q 
-------------------
  | A B C D E F G H 

Turn of: white
Succesful move
c2b1
8 | R _ B Q K _ _ R 
7 | P P P P _ _ P P 
6 | _ _ _ _ _ N _ _ 
5 | _ _ _ _ _ _ P _ 
4 | _ P P _ _ _ _ _ 
3 | P _ _ _ B _ _ _ 
2 | _ _ _ N _ _ _ _ 
1 | _ K _ _ N _ _ Q 
-------------------
  | A B C D E F G H 

Turn of: black
Succesful move
e3d2
8 | R _ B Q K _ _ R 
7 | P P P P _ _ P P 
6 | _ _ _ _ _ N _ _ 
5 | _ _ _ _ _ _ P _ 
4 | _ P P _ _ _ _ _ 
3 | P _ _ _ _ _ _ _ 
2 | _ _ _ B _ _ _ _ 
1 | _ K _ _ N _ _ Q 
-------------------
  | A B C D E F G H 

Turn of: white
Succesful move
b1b2
8 | R _ B Q K _ _ R 
7 | P P P P _ _ P P 
6 | _ _ _ _ _ N _ _ 
5 | _ _ _ _ _ _ P _ 
4 | _ P P _ _ _ _ _ 
3 | P _ _ _ _ _ _ _ 
2 | _ K _ B _ _ _ _ 
1 | _ _ _ _ N _ _ Q 
-------------------
  | A B C D E F G H 

Turn of: black
Succesful move
e1d3
8 | R _ B Q K _ _ R 
7 | P P P P _ _ P P 
6 | _ _ _ _ _ N _ _ 
5 | _ _ _ _ _ _ P _ 
4 | _ P P _ _ _ _ _ 
3 | P _ _ N _ _ _ _ 
2 | _ K _ B _ _ _ _ 
1 | _ _ _ _ _ _ _ Q 
-------------------
  | A B C D E F G H 

Turn of: white
Succesful move
b2b3
8 | R _ B Q K _ _ R 
7 | P P P P _ _ P P 
6 | _ _ _ _ _ N _ _ 
5 | _ _ _ _ _ _ P _ 
4 | _ P P _ _ _ _ _ 
3 | P K _ N _ _ _ _ 
2 | _ _ _ B _ _ _ _ 
1 | _ _ _ _ _ _ _ Q 
-------------------
  | A B C D E F G H 

Turn of: black
Succesful move
h1h4
8 | R _ B Q K _ _ R 
7 | P P P P _ _ P P 
6 | _ _ _ _ _ N _ _ 
5 | _ _ _ _ _ _ P _ 
4 | _ P P _ _ _ _ Q 
3 | P K _ N _ _ _ _ 
2 | _ _ _ B _ _ _ _ 
1 | _ _ _ _ _ _ _ _ 
-------------------
  | A B C D E F G H 

Turn of: white
Succesful move
b3a2
8 | R _ B Q K _ _ R 
7 | P P P P _ _ P P 
6 | _ _ _ _ _ N _ _ 
5 | _ _ _ _ _ _ P _ 
4 | _ P P _ _ _ _ Q 
3 | P _ _ N _ _ _ _ 
2 | K _ _ B _ _ _ _ 
1 | _ _ _ _ _ _ _ _ 
-------------------
  | A B C D E F G H 

Turn of: black
Succesful move
h4c4
8 | R _ B Q K _ _ R 
7 | P P P P _ _ P P 
6 | _ _ _ _ _ N _ _ 
5 | _ _ _ _ _ _ P _ 
4 | _ P Q _ _ _ _ _ 
3 | P _ _ N _ _ _ _ 
2 | K _ _ B _ _ _ _ 
1 | _ _ _ _ _ _ _ _ 
-------------------
  | A B C D E F G H 

Turn of: white
Succesful move
a2a1
8 | R _ B Q K _ _ R 
7 | P P P P _ _ P P 
6 | _ _ _ _ _ N _ _ 
5 | _ _ _ _ _ _ P _ 
4 | _ P Q _ _ _ _ _ 
3 | P _ _ N _ _ _ _ 
2 | _ _ _ B _ _ _ _ 
1 | K _ _ _ _ _ _ _ 
-------------------
  | A B C D E F G H 

Turn of: black
Succesful move
d2c3
8 | R _ B Q K _ _ R 
7 | P P P P _ _ P P 
6 | _ _ _ _ _ N _ _ 
5 | _ _ _ _ _ _ P _ 
4 | _ P Q _ _ _ _ _ 
3 | P _ B N _ _ _ _ 
2 | _ _ _ _ _ _ _ _ 
1 | K _ _ _ _ _ _ _ 
-------------------
  | A B C D E F G H 

We are playing as White
Move history:
d2d3
b8c6
c1g5
c6d4
c2c4
f7f6
f2f3
f6g5
d1a4
g8f6
b2b3
d4c2
e1d1
c2a1
a4a3
e7e6
f3f4
f8a3
h2h3
a3c5
d1e1
a1c2
e1d2
c2e3
d2c3
e3f1
f4f5
f1g3
e2e3
g3h1
a2a3
c5e3
b3b4
e3g1
g2g4
h1f2
c3d2
e6f5
d2c1
f2d3
c1c2
d3e1
c2b3
f5g4
b3a4
g4h3
a4b3
h3h2
b3a2
e1d3
b1d2
h2h1q
a2b1
g1e3
b1c2
d3e1
c2b1
e3d2
b1b2
e1d3
b2b3
h1h4
b3a2
h4c4
a2a1
d2c3
8 | R _ B Q K _ _ R 
7 | P P P P _ _ P P 
6 | _ _ _ _ _ N _ _ 
5 | _ _ _ _ _ _ P _ 
4 | _ P Q _ _ _ _ _ 
3 | P _ B N _ _ _ _ 
2 | _ _ _ _ _ _ _ _ 
1 | K _ _ _ _ _ _ _ 
-------------------
  | A B C D E F G H 

It is white's turn to play.
AI's move: a1b1
Move written: a1b1
[32;1m[Game] [0mPlayer's error code: 0
[32;1m[Game] [0mChecking move validity...
[32;1m[Board] [0mInitializing board...
[32;1m[Board] [0mLoading history file `championship/lizzie-iii-blueherring/history.csv`...
[32;1m[Board] [0mLoaded 66 move(s).
[32;1m[Board] [0mLoading move file `championship/lizzie-iii-blueherring/move.csv`...
[32;1m[Board] [0mWhite player is playing a1 to b1.
[32;1m[Board] [0m
[32;1m[Board] [0m    a b c d e f g h 
[32;1m[Board] [0m  -------------------
[32;1m[Board] [0m8 ||[30;1mr[0m| |[30;1mb[0m|[30;1mQ[0m|[30;1mK[0m| |[7;1m [0m|[30;1mr[0m|| 8
[32;1m[Board] [0m  -------------------
[32;1m[Board] [0m7 ||[30;1mp[0m|[30;1mp[0m|[30;1mp[0m|[30;1mp[0m| |[7;1m [0m|[30;1mp[0m|[30;1mp[0m|| 7
[32;1m[Board] [0m  -------------------
[32;1m[Board] [0m6 ||[7;1m [0m| |[7;1m [0m| |[7;1m [0m|[30;1mk[0m|[7;1m [0m| || 6
[32;1m[Board] [0m  -------------------
[32;1m[Board] [0m5 || |[7;1m [0m| |[7;1m [0m| |[7;1m [0m|[30;1mp[0m|[7;1m [0m|| 5
[32;1m[Board] [0m  -------------------
[32;1m[Board] [0m4 ||[7;1m [0m|[0;1mp[0m|[30;1mQ[0m| |[7;1m [0m| |[7;1m [0m| || 4
[32;1m[Board] [0m  -------------------
[32;1m[Board] [0m3 ||[0;1mp[0m|[7;1m [0m|[30;1mb[0m|[30;1mk[0m| |[7;1m [0m| |[7;1m [0m|| 3
[32;1m[Board] [0m  -------------------
[32;1m[Board] [0m2 ||[7;1m [0m| |[7;1m [0m| |[7;1m [0m| |[7;1m [0m| || 2
[32;1m[Board] [0m  -------------------
[32;1m[Board] [0m1 || |[0;1mK[0m| |[7;1m [0m| |[7;1m [0m| |[7;1m [0m|| 1
[32;1m[Board] [0m  -------------------
[32;1m[Board] [0m    a b c d e f g h
[32;1m[Board] [0m
[32;1m[Referee] [0mThis is the turn of the Black player...
[32;1m[Game] [0mPlayer's error code: 0
[32;1m[Game] [0mChecking move validity...
[32;1m[Board] [0mInitializing board...
[32;1m[Board] [0mLoading history file `championship/lizzie-iii-blueherring/history.csv`...
[32;1m[Board] [0mLoaded 67 move(s).
[32;1m[Board] [0mLoading move file `championship/lizzie-iii-blueherring/move.csv`...
[32;1m[Board] [0mBlack player is playing c4 to b3.
[32;1m[Board] [0m
[32;1m[Board] [0m    a b c d e f g h 
[32;1m[Board] [0m  -------------------
[32;1m[Board] [0m8 ||[30;1mr[0m| |[30;1mb[0m|[30;1mQ[0m|[30;1mK[0m| |[7;1m [0m|[30;1mr[0m|| 8
[32;1m[Board] [0m  -------------------
[32;1m[Board] [0m7 ||[30;1mp[0m|[30;1mp[0m|[30;1mp[0m|[30;1mp[0m| |[7;1m [0m|[30;1mp[0m|[30;1mp[0m|| 7
[32;1m[Board] [0m  -------------------
[32;1m[Board] [0m6 ||[7;1m [0m| |[7;1m [0m| |[7;1m [0m|[30;1mk[0m|[7;1m [0m| || 6
[32;1m[Board] [0m  -------------------
[32;1m[Board] [0m5 || |[7;1m [0m| |[7;1m [0m| |[7;1m [0m|[30;1mp[0m|[7;1m [0m|| 5
[32;1m[Board] [0m  -------------------
[32;1m[Board] [0m4 ||[7;1m [0m|[0;1mp[0m|[7;1m [0m| |[7;1m [0m| |[7;1m [0m| || 4
[32;1m[Board] [0m  -------------------
[32;1m[Board] [0m3 ||[0;1mp[0m|[30;1mQ[0m|[30;1mb[0m|[30;1mk[0m| |[7;1m [0m| |[7;1m [0m|| 3
[32;1m[Board] [0m  -------------------
[32;1m[Board] [0m2 ||[7;1m [0m| |[7;1m [0m| |[7;1m [0m| |[7;1m [0m| || 2
[32;1m[Board] [0m  -------------------
[32;1m[Board] [0m1 || |[0;1mK[0m| |[7;1m [0m| |[7;1m [0m| |[7;1m [0m|| 1
[32;1m[Board] [0m  -------------------
[32;1m[Board] [0m    a b c d e f g h
[32;1m[Board] [0m
[32;1m[Referee] [0mThis is the turn of the White player...
[32;1m[Board] [0m[33;1m[WARNING][0m [5;1mWhite King in checkmate![0m
[32;1m[Board] [0m[33;1m[WARNING][0m The Black player wins!
