[32;1m[Board] [0mInitializing board...
[32;1m[Board] [0m
[32;1m[Board] [0m    a b c d e f g h 
[32;1m[Board] [0m  -------------------
[32;1m[Board] [0m8 ||[30;1mr[0m|[30;1mk[0m|[30;1mb[0m|[30;1mQ[0m|[30;1mK[0m|[30;1mb[0m|[30;1mk[0m|[30;1mr[0m|| 8
[32;1m[Board] [0m  -------------------
[32;1m[Board] [0m7 ||[30;1mp[0m|[30;1mp[0m|[30;1mp[0m|[30;1mp[0m|[30;1mp[0m|[30;1mp[0m|[30;1mp[0m|[30;1mp[0m|| 7
[32;1m[Board] [0m  -------------------
[32;1m[Board] [0m6 ||[7;1m [0m| |[7;1m [0m| |[7;1m [0m| |[7;1m [0m| || 6
[32;1m[Board] [0m  -------------------
[32;1m[Board] [0m5 || |[7;1m [0m| |[7;1m [0m| |[7;1m [0m| |[7;1m [0m|| 5
[32;1m[Board] [0m  -------------------
[32;1m[Board] [0m4 ||[7;1m [0m| |[7;1m [0m| |[7;1m [0m| |[7;1m [0m| || 4
[32;1m[Board] [0m  -------------------
[32;1m[Board] [0m3 || |[7;1m [0m| |[7;1m [0m| |[7;1m [0m| |[7;1m [0m|| 3
[32;1m[Board] [0m  -------------------
[32;1m[Board] [0m2 ||[0;1mp[0m|[0;1mp[0m|[0;1mp[0m|[0;1mp[0m|[0;1mp[0m|[0;1mp[0m|[0;1mp[0m|[0;1mp[0m|| 2
[32;1m[Board] [0m  -------------------
[32;1m[Board] [0m1 ||[0;1mr[0m|[0;1mk[0m|[0;1mb[0m|[0;1mQ[0m|[0;1mK[0m|[0;1mb[0m|[0;1mk[0m|[0;1mr[0m|| 1
[32;1m[Board] [0m  -------------------
[32;1m[Board] [0m    a b c d e f g h
[32;1m[Board] [0m
[32;1m[Referee] [0mThis is the turn of the White player...
Input file: championship/lizzie-iii-jykchess/history.csv
Output file: championship/lizzie-iii-jykchess/move.csv
We are playing as White
Move history:
8 | R N B Q K B N R 
7 | P P P P P P P P 
6 | _ _ _ _ _ _ _ _ 
5 | _ _ _ _ _ _ _ _ 
4 | _ _ _ _ _ _ _ _ 
3 | _ _ _ _ _ _ _ _ 
2 | P P P P P P P P 
1 | R N B Q K B N R 
-------------------
  | A B C D E F G H 

It is white's turn to play.
AI's move: d2d3
Move written: d2d3
[32;1m[Game] [0mPlayer's error code: 0
[32;1m[Game] [0mChecking move validity...
[32;1m[Board] [0mInitializing board...
[32;1m[Board] [0mLoading history file `championship/lizzie-iii-jykchess/history.csv`...
[32;1m[Board] [0mLoaded 0 move(s).
[32;1m[Board] [0mLoading move file `championship/lizzie-iii-jykchess/move.csv`...
[32;1m[Board] [0mWhite player is playing d2 to d3.
[32;1m[Board] [0m
[32;1m[Board] [0m    a b c d e f g h 
[32;1m[Board] [0m  -------------------
[32;1m[Board] [0m8 ||[30;1mr[0m|[30;1mk[0m|[30;1mb[0m|[30;1mQ[0m|[30;1mK[0m|[30;1mb[0m|[30;1mk[0m|[30;1mr[0m|| 8
[32;1m[Board] [0m  -------------------
[32;1m[Board] [0m7 ||[30;1mp[0m|[30;1mp[0m|[30;1mp[0m|[30;1mp[0m|[30;1mp[0m|[30;1mp[0m|[30;1mp[0m|[30;1mp[0m|| 7
[32;1m[Board] [0m  -------------------
[32;1m[Board] [0m6 ||[7;1m [0m| |[7;1m [0m| |[7;1m [0m| |[7;1m [0m| || 6
[32;1m[Board] [0m  -------------------
[32;1m[Board] [0m5 || |[7;1m [0m| |[7;1m [0m| |[7;1m [0m| |[7;1m [0m|| 5
[32;1m[Board] [0m  -------------------
[32;1m[Board] [0m4 ||[7;1m [0m| |[7;1m [0m| |[7;1m [0m| |[7;1m [0m| || 4
[32;1m[Board] [0m  -------------------
[32;1m[Board] [0m3 || |[7;1m [0m| |[0;1mp[0m| |[7;1m [0m| |[7;1m [0m|| 3
[32;1m[Board] [0m  -------------------
[32;1m[Board] [0m2 ||[0;1mp[0m|[0;1mp[0m|[0;1mp[0m| |[0;1mp[0m|[0;1mp[0m|[0;1mp[0m|[0;1mp[0m|| 2
[32;1m[Board] [0m  -------------------
[32;1m[Board] [0m1 ||[0;1mr[0m|[0;1mk[0m|[0;1mb[0m|[0;1mQ[0m|[0;1mK[0m|[0;1mb[0m|[0;1mk[0m|[0;1mr[0m|| 1
[32;1m[Board] [0m  -------------------
[32;1m[Board] [0m    a b c d e f g h
[32;1m[Board] [0m
[32;1m[Referee] [0mThis is the turn of the Black player...

Random next move for the current player: d7d6
[32;1m[Game] [0mPlayer's error code: 0
[32;1m[Game] [0mChecking move validity...
[32;1m[Board] [0mInitializing board...
[32;1m[Board] [0mLoading history file `championship/lizzie-iii-jykchess/history.csv`...
[32;1m[Board] [0mLoaded 1 move(s).
[32;1m[Board] [0mLoading move file `championship/lizzie-iii-jykchess/move.csv`...
[32;1m[Board] [0mBlack player is playing d7 to d6.
[32;1m[Board] [0m
[32;1m[Board] [0m    a b c d e f g h 
[32;1m[Board] [0m  -------------------
[32;1m[Board] [0m8 ||[30;1mr[0m|[30;1mk[0m|[30;1mb[0m|[30;1mQ[0m|[30;1mK[0m|[30;1mb[0m|[30;1mk[0m|[30;1mr[0m|| 8
[32;1m[Board] [0m  -------------------
[32;1m[Board] [0m7 ||[30;1mp[0m|[30;1mp[0m|[30;1mp[0m|[7;1m [0m|[30;1mp[0m|[30;1mp[0m|[30;1mp[0m|[30;1mp[0m|| 7
[32;1m[Board] [0m  -------------------
[32;1m[Board] [0m6 ||[7;1m [0m| |[7;1m [0m|[30;1mp[0m|[7;1m [0m| |[7;1m [0m| || 6
[32;1m[Board] [0m  -------------------
[32;1m[Board] [0m5 || |[7;1m [0m| |[7;1m [0m| |[7;1m [0m| |[7;1m [0m|| 5
[32;1m[Board] [0m  -------------------
[32;1m[Board] [0m4 ||[7;1m [0m| |[7;1m [0m| |[7;1m [0m| |[7;1m [0m| || 4
[32;1m[Board] [0m  -------------------
[32;1m[Board] [0m3 || |[7;1m [0m| |[0;1mp[0m| |[7;1m [0m| |[7;1m [0m|| 3
[32;1m[Board] [0m  -------------------
[32;1m[Board] [0m2 ||[0;1mp[0m|[0;1mp[0m|[0;1mp[0m| |[0;1mp[0m|[0;1mp[0m|[0;1mp[0m|[0;1mp[0m|| 2
[32;1m[Board] [0m  -------------------
[32;1m[Board] [0m1 ||[0;1mr[0m|[0;1mk[0m|[0;1mb[0m|[0;1mQ[0m|[0;1mK[0m|[0;1mb[0m|[0;1mk[0m|[0;1mr[0m|| 1
[32;1m[Board] [0m  -------------------
[32;1m[Board] [0m    a b c d e f g h
[32;1m[Board] [0m
[32;1m[Referee] [0mThis is the turn of the White player...
Input file: championship/lizzie-iii-jykchess/history.csv
Output file: championship/lizzie-iii-jykchess/move.csv
Turn of: white
Succesful move
d2d3
8 | R N B Q K B N R 
7 | P P P P P P P P 
6 | _ _ _ _ _ _ _ _ 
5 | _ _ _ _ _ _ _ _ 
4 | _ _ _ _ _ _ _ _ 
3 | _ _ _ P _ _ _ _ 
2 | P P P _ P P P P 
1 | R N B Q K B N R 
-------------------
  | A B C D E F G H 

Turn of: black
Succesful move
d7d6
8 | R N B Q K B N R 
7 | P P P _ P P P P 
6 | _ _ _ P _ _ _ _ 
5 | _ _ _ _ _ _ _ _ 
4 | _ _ _ _ _ _ _ _ 
3 | _ _ _ P _ _ _ _ 
2 | P P P _ P P P P 
1 | R N B Q K B N R 
-------------------
  | A B C D E F G H 

We are playing as White
Move history:
d2d3
d7d6
8 | R N B Q K B N R 
7 | P P P _ P P P P 
6 | _ _ _ P _ _ _ _ 
5 | _ _ _ _ _ _ _ _ 
4 | _ _ _ _ _ _ _ _ 
3 | _ _ _ P _ _ _ _ 
2 | P P P _ P P P P 
1 | R N B Q K B N R 
-------------------
  | A B C D E F G H 

It is white's turn to play.
AI's move: c2c4
Move written: c2c4
[32;1m[Game] [0mPlayer's error code: 0
[32;1m[Game] [0mChecking move validity...
[32;1m[Board] [0mInitializing board...
[32;1m[Board] [0mLoading history file `championship/lizzie-iii-jykchess/history.csv`...
[32;1m[Board] [0mLoaded 2 move(s).
[32;1m[Board] [0mLoading move file `championship/lizzie-iii-jykchess/move.csv`...
[32;1m[Board] [0mWhite player is playing c2 to c4.
[32;1m[Board] [0m
[32;1m[Board] [0m    a b c d e f g h 
[32;1m[Board] [0m  -------------------
[32;1m[Board] [0m8 ||[30;1mr[0m|[30;1mk[0m|[30;1mb[0m|[30;1mQ[0m|[30;1mK[0m|[30;1mb[0m|[30;1mk[0m|[30;1mr[0m|| 8
[32;1m[Board] [0m  -------------------
[32;1m[Board] [0m7 ||[30;1mp[0m|[30;1mp[0m|[30;1mp[0m|[7;1m [0m|[30;1mp[0m|[30;1mp[0m|[30;1mp[0m|[30;1mp[0m|| 7
[32;1m[Board] [0m  -------------------
[32;1m[Board] [0m6 ||[7;1m [0m| |[7;1m [0m|[30;1mp[0m|[7;1m [0m| |[7;1m [0m| || 6
[32;1m[Board] [0m  -------------------
[32;1m[Board] [0m5 || |[7;1m [0m| |[7;1m [0m| |[7;1m [0m| |[7;1m [0m|| 5
[32;1m[Board] [0m  -------------------
[32;1m[Board] [0m4 ||[7;1m [0m| |[0;1mp[0m| |[7;1m [0m| |[7;1m [0m| || 4
[32;1m[Board] [0m  -------------------
[32;1m[Board] [0m3 || |[7;1m [0m| |[0;1mp[0m| |[7;1m [0m| |[7;1m [0m|| 3
[32;1m[Board] [0m  -------------------
[32;1m[Board] [0m2 ||[0;1mp[0m|[0;1mp[0m|[7;1m [0m| |[0;1mp[0m|[0;1mp[0m|[0;1mp[0m|[0;1mp[0m|| 2
[32;1m[Board] [0m  -------------------
[32;1m[Board] [0m1 ||[0;1mr[0m|[0;1mk[0m|[0;1mb[0m|[0;1mQ[0m|[0;1mK[0m|[0;1mb[0m|[0;1mk[0m|[0;1mr[0m|| 1
[32;1m[Board] [0m  -------------------
[32;1m[Board] [0m    a b c d e f g h
[32;1m[Board] [0m
[32;1m[Referee] [0mThis is the turn of the Black player...

Random next move for the current player: b8c6
[32;1m[Game] [0mPlayer's error code: 0
[32;1m[Game] [0mChecking move validity...
[32;1m[Board] [0mInitializing board...
[32;1m[Board] [0mLoading history file `championship/lizzie-iii-jykchess/history.csv`...
[32;1m[Board] [0mLoaded 3 move(s).
[32;1m[Board] [0mLoading move file `championship/lizzie-iii-jykchess/move.csv`...
[32;1m[Board] [0mBlack player is playing b8 to c6.
[32;1m[Board] [0m
[32;1m[Board] [0m    a b c d e f g h 
[32;1m[Board] [0m  -------------------
[32;1m[Board] [0m8 ||[30;1mr[0m| |[30;1mb[0m|[30;1mQ[0m|[30;1mK[0m|[30;1mb[0m|[30;1mk[0m|[30;1mr[0m|| 8
[32;1m[Board] [0m  -------------------
[32;1m[Board] [0m7 ||[30;1mp[0m|[30;1mp[0m|[30;1mp[0m|[7;1m [0m|[30;1mp[0m|[30;1mp[0m|[30;1mp[0m|[30;1mp[0m|| 7
[32;1m[Board] [0m  -------------------
[32;1m[Board] [0m6 ||[7;1m [0m| |[30;1mk[0m|[30;1mp[0m|[7;1m [0m| |[7;1m [0m| || 6
[32;1m[Board] [0m  -------------------
[32;1m[Board] [0m5 || |[7;1m [0m| |[7;1m [0m| |[7;1m [0m| |[7;1m [0m|| 5
[32;1m[Board] [0m  -------------------
[32;1m[Board] [0m4 ||[7;1m [0m| |[0;1mp[0m| |[7;1m [0m| |[7;1m [0m| || 4
[32;1m[Board] [0m  -------------------
[32;1m[Board] [0m3 || |[7;1m [0m| |[0;1mp[0m| |[7;1m [0m| |[7;1m [0m|| 3
[32;1m[Board] [0m  -------------------
[32;1m[Board] [0m2 ||[0;1mp[0m|[0;1mp[0m|[7;1m [0m| |[0;1mp[0m|[0;1mp[0m|[0;1mp[0m|[0;1mp[0m|| 2
[32;1m[Board] [0m  -------------------
[32;1m[Board] [0m1 ||[0;1mr[0m|[0;1mk[0m|[0;1mb[0m|[0;1mQ[0m|[0;1mK[0m|[0;1mb[0m|[0;1mk[0m|[0;1mr[0m|| 1
[32;1m[Board] [0m  -------------------
[32;1m[Board] [0m    a b c d e f g h
[32;1m[Board] [0m
[32;1m[Referee] [0mThis is the turn of the White player...
Input file: championship/lizzie-iii-jykchess/history.csv
Output file: championship/lizzie-iii-jykchess/move.csv
Turn of: white
Succesful move
d2d3
8 | R N B Q K B N R 
7 | P P P P P P P P 
6 | _ _ _ _ _ _ _ _ 
5 | _ _ _ _ _ _ _ _ 
4 | _ _ _ _ _ _ _ _ 
3 | _ _ _ P _ _ _ _ 
2 | P P P _ P P P P 
1 | R N B Q K B N R 
-------------------
  | A B C D E F G H 

Turn of: black
Succesful move
d7d6
8 | R N B Q K B N R 
7 | P P P _ P P P P 
6 | _ _ _ P _ _ _ _ 
5 | _ _ _ _ _ _ _ _ 
4 | _ _ _ _ _ _ _ _ 
3 | _ _ _ P _ _ _ _ 
2 | P P P _ P P P P 
1 | R N B Q K B N R 
-------------------
  | A B C D E F G H 

Turn of: white
Succesful move
c2c4
8 | R N B Q K B N R 
7 | P P P _ P P P P 
6 | _ _ _ P _ _ _ _ 
5 | _ _ _ _ _ _ _ _ 
4 | _ _ P _ _ _ _ _ 
3 | _ _ _ P _ _ _ _ 
2 | P P _ _ P P P P 
1 | R N B Q K B N R 
-------------------
  | A B C D E F G H 

Turn of: black
Succesful move
b8c6
8 | R _ B Q K B N R 
7 | P P P _ P P P P 
6 | _ _ N P _ _ _ _ 
5 | _ _ _ _ _ _ _ _ 
4 | _ _ P _ _ _ _ _ 
3 | _ _ _ P _ _ _ _ 
2 | P P _ _ P P P P 
1 | R N B Q K B N R 
-------------------
  | A B C D E F G H 

We are playing as White
Move history:
d2d3
d7d6
c2c4
b8c6
8 | R _ B Q K B N R 
7 | P P P _ P P P P 
6 | _ _ N P _ _ _ _ 
5 | _ _ _ _ _ _ _ _ 
4 | _ _ P _ _ _ _ _ 
3 | _ _ _ P _ _ _ _ 
2 | P P _ _ P P P P 
1 | R N B Q K B N R 
-------------------
  | A B C D E F G H 

It is white's turn to play.
AI's move: c1g5
Move written: c1g5
[32;1m[Game] [0mPlayer's error code: 0
[32;1m[Game] [0mChecking move validity...
[32;1m[Board] [0mInitializing board...
[32;1m[Board] [0mLoading history file `championship/lizzie-iii-jykchess/history.csv`...
[32;1m[Board] [0mLoaded 4 move(s).
[32;1m[Board] [0mLoading move file `championship/lizzie-iii-jykchess/move.csv`...
[32;1m[Board] [0mWhite player is playing c1 to g5.
[32;1m[Board] [0m
[32;1m[Board] [0m    a b c d e f g h 
[32;1m[Board] [0m  -------------------
[32;1m[Board] [0m8 ||[30;1mr[0m| |[30;1mb[0m|[30;1mQ[0m|[30;1mK[0m|[30;1mb[0m|[30;1mk[0m|[30;1mr[0m|| 8
[32;1m[Board] [0m  -------------------
[32;1m[Board] [0m7 ||[30;1mp[0m|[30;1mp[0m|[30;1mp[0m|[7;1m [0m|[30;1mp[0m|[30;1mp[0m|[30;1mp[0m|[30;1mp[0m|| 7
[32;1m[Board] [0m  -------------------
[32;1m[Board] [0m6 ||[7;1m [0m| |[30;1mk[0m|[30;1mp[0m|[7;1m [0m| |[7;1m [0m| || 6
[32;1m[Board] [0m  -------------------
[32;1m[Board] [0m5 || |[7;1m [0m| |[7;1m [0m| |[7;1m [0m|[0;1mb[0m|[7;1m [0m|| 5
[32;1m[Board] [0m  -------------------
[32;1m[Board] [0m4 ||[7;1m [0m| |[0;1mp[0m| |[7;1m [0m| |[7;1m [0m| || 4
[32;1m[Board] [0m  -------------------
[32;1m[Board] [0m3 || |[7;1m [0m| |[0;1mp[0m| |[7;1m [0m| |[7;1m [0m|| 3
[32;1m[Board] [0m  -------------------
[32;1m[Board] [0m2 ||[0;1mp[0m|[0;1mp[0m|[7;1m [0m| |[0;1mp[0m|[0;1mp[0m|[0;1mp[0m|[0;1mp[0m|| 2
[32;1m[Board] [0m  -------------------
[32;1m[Board] [0m1 ||[0;1mr[0m|[0;1mk[0m| |[0;1mQ[0m|[0;1mK[0m|[0;1mb[0m|[0;1mk[0m|[0;1mr[0m|| 1
[32;1m[Board] [0m  -------------------
[32;1m[Board] [0m    a b c d e f g h
[32;1m[Board] [0m
[32;1m[Referee] [0mThis is the turn of the Black player...

Random next move for the current player: c8d7
[32;1m[Game] [0mPlayer's error code: 0
[32;1m[Game] [0mChecking move validity...
[32;1m[Board] [0mInitializing board...
[32;1m[Board] [0mLoading history file `championship/lizzie-iii-jykchess/history.csv`...
[32;1m[Board] [0mLoaded 5 move(s).
[32;1m[Board] [0mLoading move file `championship/lizzie-iii-jykchess/move.csv`...
[32;1m[Board] [0mBlack player is playing c8 to d7.
[32;1m[Board] [0m
[32;1m[Board] [0m    a b c d e f g h 
[32;1m[Board] [0m  -------------------
[32;1m[Board] [0m8 ||[30;1mr[0m| |[7;1m [0m|[30;1mQ[0m|[30;1mK[0m|[30;1mb[0m|[30;1mk[0m|[30;1mr[0m|| 8
[32;1m[Board] [0m  -------------------
[32;1m[Board] [0m7 ||[30;1mp[0m|[30;1mp[0m|[30;1mp[0m|[30;1mb[0m|[30;1mp[0m|[30;1mp[0m|[30;1mp[0m|[30;1mp[0m|| 7
[32;1m[Board] [0m  -------------------
[32;1m[Board] [0m6 ||[7;1m [0m| |[30;1mk[0m|[30;1mp[0m|[7;1m [0m| |[7;1m [0m| || 6
[32;1m[Board] [0m  -------------------
[32;1m[Board] [0m5 || |[7;1m [0m| |[7;1m [0m| |[7;1m [0m|[0;1mb[0m|[7;1m [0m|| 5
[32;1m[Board] [0m  -------------------
[32;1m[Board] [0m4 ||[7;1m [0m| |[0;1mp[0m| |[7;1m [0m| |[7;1m [0m| || 4
[32;1m[Board] [0m  -------------------
[32;1m[Board] [0m3 || |[7;1m [0m| |[0;1mp[0m| |[7;1m [0m| |[7;1m [0m|| 3
[32;1m[Board] [0m  -------------------
[32;1m[Board] [0m2 ||[0;1mp[0m|[0;1mp[0m|[7;1m [0m| |[0;1mp[0m|[0;1mp[0m|[0;1mp[0m|[0;1mp[0m|| 2
[32;1m[Board] [0m  -------------------
[32;1m[Board] [0m1 ||[0;1mr[0m|[0;1mk[0m| |[0;1mQ[0m|[0;1mK[0m|[0;1mb[0m|[0;1mk[0m|[0;1mr[0m|| 1
[32;1m[Board] [0m  -------------------
[32;1m[Board] [0m    a b c d e f g h
[32;1m[Board] [0m
[32;1m[Referee] [0mThis is the turn of the White player...
Input file: championship/lizzie-iii-jykchess/history.csv
Output file: championship/lizzie-iii-jykchess/move.csv
Turn of: white
Succesful move
d2d3
8 | R N B Q K B N R 
7 | P P P P P P P P 
6 | _ _ _ _ _ _ _ _ 
5 | _ _ _ _ _ _ _ _ 
4 | _ _ _ _ _ _ _ _ 
3 | _ _ _ P _ _ _ _ 
2 | P P P _ P P P P 
1 | R N B Q K B N R 
-------------------
  | A B C D E F G H 

Turn of: black
Succesful move
d7d6
8 | R N B Q K B N R 
7 | P P P _ P P P P 
6 | _ _ _ P _ _ _ _ 
5 | _ _ _ _ _ _ _ _ 
4 | _ _ _ _ _ _ _ _ 
3 | _ _ _ P _ _ _ _ 
2 | P P P _ P P P P 
1 | R N B Q K B N R 
-------------------
  | A B C D E F G H 

Turn of: white
Succesful move
c2c4
8 | R N B Q K B N R 
7 | P P P _ P P P P 
6 | _ _ _ P _ _ _ _ 
5 | _ _ _ _ _ _ _ _ 
4 | _ _ P _ _ _ _ _ 
3 | _ _ _ P _ _ _ _ 
2 | P P _ _ P P P P 
1 | R N B Q K B N R 
-------------------
  | A B C D E F G H 

Turn of: black
Succesful move
b8c6
8 | R _ B Q K B N R 
7 | P P P _ P P P P 
6 | _ _ N P _ _ _ _ 
5 | _ _ _ _ _ _ _ _ 
4 | _ _ P _ _ _ _ _ 
3 | _ _ _ P _ _ _ _ 
2 | P P _ _ P P P P 
1 | R N B Q K B N R 
-------------------
  | A B C D E F G H 

Turn of: white
Succesful move
c1g5
8 | R _ B Q K B N R 
7 | P P P _ P P P P 
6 | _ _ N P _ _ _ _ 
5 | _ _ _ _ _ _ B _ 
4 | _ _ P _ _ _ _ _ 
3 | _ _ _ P _ _ _ _ 
2 | P P _ _ P P P P 
1 | R N _ Q K B N R 
-------------------
  | A B C D E F G H 

Turn of: black
Succesful move
c8d7
8 | R _ _ Q K B N R 
7 | P P P B P P P P 
6 | _ _ N P _ _ _ _ 
5 | _ _ _ _ _ _ B _ 
4 | _ _ P _ _ _ _ _ 
3 | _ _ _ P _ _ _ _ 
2 | P P _ _ P P P P 
1 | R N _ Q K B N R 
-------------------
  | A B C D E F G H 

We are playing as White
Move history:
d2d3
d7d6
c2c4
b8c6
c1g5
c8d7
8 | R _ _ Q K B N R 
7 | P P P B P P P P 
6 | _ _ N P _ _ _ _ 
5 | _ _ _ _ _ _ B _ 
4 | _ _ P _ _ _ _ _ 
3 | _ _ _ P _ _ _ _ 
2 | P P _ _ P P P P 
1 | R N _ Q K B N R 
-------------------
  | A B C D E F G H 

It is white's turn to play.
AI's move: g2g4
Move written: g2g4
[32;1m[Game] [0mPlayer's error code: 0
[32;1m[Game] [0mChecking move validity...
[32;1m[Board] [0mInitializing board...
[32;1m[Board] [0mLoading history file `championship/lizzie-iii-jykchess/history.csv`...
[32;1m[Board] [0mLoaded 6 move(s).
[32;1m[Board] [0mLoading move file `championship/lizzie-iii-jykchess/move.csv`...
[32;1m[Board] [0mWhite player is playing g2 to g4.
[32;1m[Board] [0m
[32;1m[Board] [0m    a b c d e f g h 
[32;1m[Board] [0m  -------------------
[32;1m[Board] [0m8 ||[30;1mr[0m| |[7;1m [0m|[30;1mQ[0m|[30;1mK[0m|[30;1mb[0m|[30;1mk[0m|[30;1mr[0m|| 8
[32;1m[Board] [0m  -------------------
[32;1m[Board] [0m7 ||[30;1mp[0m|[30;1mp[0m|[30;1mp[0m|[30;1mb[0m|[30;1mp[0m|[30;1mp[0m|[30;1mp[0m|[30;1mp[0m|| 7
[32;1m[Board] [0m  -------------------
[32;1m[Board] [0m6 ||[7;1m [0m| |[30;1mk[0m|[30;1mp[0m|[7;1m [0m| |[7;1m [0m| || 6
[32;1m[Board] [0m  -------------------
[32;1m[Board] [0m5 || |[7;1m [0m| |[7;1m [0m| |[7;1m [0m|[0;1mb[0m|[7;1m [0m|| 5
[32;1m[Board] [0m  -------------------
[32;1m[Board] [0m4 ||[7;1m [0m| |[0;1mp[0m| |[7;1m [0m| |[0;1mp[0m| || 4
[32;1m[Board] [0m  -------------------
[32;1m[Board] [0m3 || |[7;1m [0m| |[0;1mp[0m| |[7;1m [0m| |[7;1m [0m|| 3
[32;1m[Board] [0m  -------------------
[32;1m[Board] [0m2 ||[0;1mp[0m|[0;1mp[0m|[7;1m [0m| |[0;1mp[0m|[0;1mp[0m|[7;1m [0m|[0;1mp[0m|| 2
[32;1m[Board] [0m  -------------------
[32;1m[Board] [0m1 ||[0;1mr[0m|[0;1mk[0m| |[0;1mQ[0m|[0;1mK[0m|[0;1mb[0m|[0;1mk[0m|[0;1mr[0m|| 1
[32;1m[Board] [0m  -------------------
[32;1m[Board] [0m    a b c d e f g h
[32;1m[Board] [0m
[32;1m[Referee] [0mThis is the turn of the Black player...

Random next move for the current player: a8c8
[32;1m[Game] [0mPlayer's error code: 0
[32;1m[Game] [0mChecking move validity...
[32;1m[Board] [0mInitializing board...
[32;1m[Board] [0mLoading history file `championship/lizzie-iii-jykchess/history.csv`...
[32;1m[Board] [0mLoaded 7 move(s).
[32;1m[Board] [0mLoading move file `championship/lizzie-iii-jykchess/move.csv`...
[32;1m[Board] [0mBlack player is playing a8 to c8.
[32;1m[Board] [0m
[32;1m[Board] [0m    a b c d e f g h 
[32;1m[Board] [0m  -------------------
[32;1m[Board] [0m8 ||[7;1m [0m| |[30;1mr[0m|[30;1mQ[0m|[30;1mK[0m|[30;1mb[0m|[30;1mk[0m|[30;1mr[0m|| 8
[32;1m[Board] [0m  -------------------
[32;1m[Board] [0m7 ||[30;1mp[0m|[30;1mp[0m|[30;1mp[0m|[30;1mb[0m|[30;1mp[0m|[30;1mp[0m|[30;1mp[0m|[30;1mp[0m|| 7
[32;1m[Board] [0m  -------------------
[32;1m[Board] [0m6 ||[7;1m [0m| |[30;1mk[0m|[30;1mp[0m|[7;1m [0m| |[7;1m [0m| || 6
[32;1m[Board] [0m  -------------------
[32;1m[Board] [0m5 || |[7;1m [0m| |[7;1m [0m| |[7;1m [0m|[0;1mb[0m|[7;1m [0m|| 5
[32;1m[Board] [0m  -------------------
[32;1m[Board] [0m4 ||[7;1m [0m| |[0;1mp[0m| |[7;1m [0m| |[0;1mp[0m| || 4
[32;1m[Board] [0m  -------------------
[32;1m[Board] [0m3 || |[7;1m [0m| |[0;1mp[0m| |[7;1m [0m| |[7;1m [0m|| 3
[32;1m[Board] [0m  -------------------
[32;1m[Board] [0m2 ||[0;1mp[0m|[0;1mp[0m|[7;1m [0m| |[0;1mp[0m|[0;1mp[0m|[7;1m [0m|[0;1mp[0m|| 2
[32;1m[Board] [0m  -------------------
[32;1m[Board] [0m1 ||[0;1mr[0m|[0;1mk[0m| |[0;1mQ[0m|[0;1mK[0m|[0;1mb[0m|[0;1mk[0m|[0;1mr[0m|| 1
[32;1m[Board] [0m  -------------------
[32;1m[Board] [0m    a b c d e f g h
[32;1m[Board] [0m
[32;1m[Referee] [0mThis is the turn of the White player...
Input file: championship/lizzie-iii-jykchess/history.csv
Output file: championship/lizzie-iii-jykchess/move.csv
Turn of: white
Succesful move
d2d3
8 | R N B Q K B N R 
7 | P P P P P P P P 
6 | _ _ _ _ _ _ _ _ 
5 | _ _ _ _ _ _ _ _ 
4 | _ _ _ _ _ _ _ _ 
3 | _ _ _ P _ _ _ _ 
2 | P P P _ P P P P 
1 | R N B Q K B N R 
-------------------
  | A B C D E F G H 

Turn of: black
Succesful move
d7d6
8 | R N B Q K B N R 
7 | P P P _ P P P P 
6 | _ _ _ P _ _ _ _ 
5 | _ _ _ _ _ _ _ _ 
4 | _ _ _ _ _ _ _ _ 
3 | _ _ _ P _ _ _ _ 
2 | P P P _ P P P P 
1 | R N B Q K B N R 
-------------------
  | A B C D E F G H 

Turn of: white
Succesful move
c2c4
8 | R N B Q K B N R 
7 | P P P _ P P P P 
6 | _ _ _ P _ _ _ _ 
5 | _ _ _ _ _ _ _ _ 
4 | _ _ P _ _ _ _ _ 
3 | _ _ _ P _ _ _ _ 
2 | P P _ _ P P P P 
1 | R N B Q K B N R 
-------------------
  | A B C D E F G H 

Turn of: black
Succesful move
b8c6
8 | R _ B Q K B N R 
7 | P P P _ P P P P 
6 | _ _ N P _ _ _ _ 
5 | _ _ _ _ _ _ _ _ 
4 | _ _ P _ _ _ _ _ 
3 | _ _ _ P _ _ _ _ 
2 | P P _ _ P P P P 
1 | R N B Q K B N R 
-------------------
  | A B C D E F G H 

Turn of: white
Succesful move
c1g5
8 | R _ B Q K B N R 
7 | P P P _ P P P P 
6 | _ _ N P _ _ _ _ 
5 | _ _ _ _ _ _ B _ 
4 | _ _ P _ _ _ _ _ 
3 | _ _ _ P _ _ _ _ 
2 | P P _ _ P P P P 
1 | R N _ Q K B N R 
-------------------
  | A B C D E F G H 

Turn of: black
Succesful move
c8d7
8 | R _ _ Q K B N R 
7 | P P P B P P P P 
6 | _ _ N P _ _ _ _ 
5 | _ _ _ _ _ _ B _ 
4 | _ _ P _ _ _ _ _ 
3 | _ _ _ P _ _ _ _ 
2 | P P _ _ P P P P 
1 | R N _ Q K B N R 
-------------------
  | A B C D E F G H 

Turn of: white
Succesful move
g2g4
8 | R _ _ Q K B N R 
7 | P P P B P P P P 
6 | _ _ N P _ _ _ _ 
5 | _ _ _ _ _ _ B _ 
4 | _ _ P _ _ _ P _ 
3 | _ _ _ P _ _ _ _ 
2 | P P _ _ P P _ P 
1 | R N _ Q K B N R 
-------------------
  | A B C D E F G H 

Turn of: black
Succesful move
a8c8
8 | _ _ R Q K B N R 
7 | P P P B P P P P 
6 | _ _ N P _ _ _ _ 
5 | _ _ _ _ _ _ B _ 
4 | _ _ P _ _ _ P _ 
3 | _ _ _ P _ _ _ _ 
2 | P P _ _ P P _ P 
1 | R N _ Q K B N R 
-------------------
  | A B C D E F G H 

We are playing as White
Move history:
d2d3
d7d6
c2c4
b8c6
c1g5
c8d7
g2g4
a8c8
8 | _ _ R Q K B N R 
7 | P P P B P P P P 
6 | _ _ N P _ _ _ _ 
5 | _ _ _ _ _ _ B _ 
4 | _ _ P _ _ _ P _ 
3 | _ _ _ P _ _ _ _ 
2 | P P _ _ P P _ P 
1 | R N _ Q K B N R 
-------------------
  | A B C D E F G H 

It is white's turn to play.
AI's move: b1a3
Move written: b1a3
[32;1m[Game] [0mPlayer's error code: 0
[32;1m[Game] [0mChecking move validity...
[32;1m[Board] [0mInitializing board...
[32;1m[Board] [0mLoading history file `championship/lizzie-iii-jykchess/history.csv`...
[32;1m[Board] [0mLoaded 8 move(s).
[32;1m[Board] [0mLoading move file `championship/lizzie-iii-jykchess/move.csv`...
[32;1m[Board] [0mWhite player is playing b1 to a3.
[32;1m[Board] [0m
[32;1m[Board] [0m    a b c d e f g h 
[32;1m[Board] [0m  -------------------
[32;1m[Board] [0m8 ||[7;1m [0m| |[30;1mr[0m|[30;1mQ[0m|[30;1mK[0m|[30;1mb[0m|[30;1mk[0m|[30;1mr[0m|| 8
[32;1m[Board] [0m  -------------------
[32;1m[Board] [0m7 ||[30;1mp[0m|[30;1mp[0m|[30;1mp[0m|[30;1mb[0m|[30;1mp[0m|[30;1mp[0m|[30;1mp[0m|[30;1mp[0m|| 7
[32;1m[Board] [0m  -------------------
[32;1m[Board] [0m6 ||[7;1m [0m| |[30;1mk[0m|[30;1mp[0m|[7;1m [0m| |[7;1m [0m| || 6
[32;1m[Board] [0m  -------------------
[32;1m[Board] [0m5 || |[7;1m [0m| |[7;1m [0m| |[7;1m [0m|[0;1mb[0m|[7;1m [0m|| 5
[32;1m[Board] [0m  -------------------
[32;1m[Board] [0m4 ||[7;1m [0m| |[0;1mp[0m| |[7;1m [0m| |[0;1mp[0m| || 4
[32;1m[Board] [0m  -------------------
[32;1m[Board] [0m3 ||[0;1mk[0m|[7;1m [0m| |[0;1mp[0m| |[7;1m [0m| |[7;1m [0m|| 3
[32;1m[Board] [0m  -------------------
[32;1m[Board] [0m2 ||[0;1mp[0m|[0;1mp[0m|[7;1m [0m| |[0;1mp[0m|[0;1mp[0m|[7;1m [0m|[0;1mp[0m|| 2
[32;1m[Board] [0m  -------------------
[32;1m[Board] [0m1 ||[0;1mr[0m|[7;1m [0m| |[0;1mQ[0m|[0;1mK[0m|[0;1mb[0m|[0;1mk[0m|[0;1mr[0m|| 1
[32;1m[Board] [0m  -------------------
[32;1m[Board] [0m    a b c d e f g h
[32;1m[Board] [0m
[32;1m[Referee] [0mThis is the turn of the Black player...

Random next move for the current player: d7g4
[32;1m[Game] [0mPlayer's error code: 0
[32;1m[Game] [0mChecking move validity...
[32;1m[Board] [0mInitializing board...
[32;1m[Board] [0mLoading history file `championship/lizzie-iii-jykchess/history.csv`...
[32;1m[Board] [0mLoaded 9 move(s).
[32;1m[Board] [0mLoading move file `championship/lizzie-iii-jykchess/move.csv`...
[32;1m[Board] [0mBlack player is playing d7 to g4.
[32;1m[Board] [0m[5;1mBlack Bishop is taking White Pawn.[0m
[32;1m[Board] [0m
[32;1m[Board] [0m    a b c d e f g h 
[32;1m[Board] [0m  -------------------
[32;1m[Board] [0m8 ||[7;1m [0m| |[30;1mr[0m|[30;1mQ[0m|[30;1mK[0m|[30;1mb[0m|[30;1mk[0m|[30;1mr[0m|| 8
[32;1m[Board] [0m  -------------------
[32;1m[Board] [0m7 ||[30;1mp[0m|[30;1mp[0m|[30;1mp[0m|[7;1m [0m|[30;1mp[0m|[30;1mp[0m|[30;1mp[0m|[30;1mp[0m|| 7
[32;1m[Board] [0m  -------------------
[32;1m[Board] [0m6 ||[7;1m [0m| |[30;1mk[0m|[30;1mp[0m|[7;1m [0m| |[7;1m [0m| || 6
[32;1m[Board] [0m  -------------------
[32;1m[Board] [0m5 || |[7;1m [0m| |[7;1m [0m| |[7;1m [0m|[0;1mb[0m|[7;1m [0m|| 5
[32;1m[Board] [0m  -------------------
[32;1m[Board] [0m4 ||[7;1m [0m| |[0;1mp[0m| |[7;1m [0m| |[30;1mb[0m| || 4
[32;1m[Board] [0m  -------------------
[32;1m[Board] [0m3 ||[0;1mk[0m|[7;1m [0m| |[0;1mp[0m| |[7;1m [0m| |[7;1m [0m|| 3
[32;1m[Board] [0m  -------------------
[32;1m[Board] [0m2 ||[0;1mp[0m|[0;1mp[0m|[7;1m [0m| |[0;1mp[0m|[0;1mp[0m|[7;1m [0m|[0;1mp[0m|| 2
[32;1m[Board] [0m  -------------------
[32;1m[Board] [0m1 ||[0;1mr[0m|[7;1m [0m| |[0;1mQ[0m|[0;1mK[0m|[0;1mb[0m|[0;1mk[0m|[0;1mr[0m|| 1
[32;1m[Board] [0m  -------------------
[32;1m[Board] [0m    a b c d e f g h
[32;1m[Board] [0m
[32;1m[Referee] [0mThis is the turn of the White player...
Input file: championship/lizzie-iii-jykchess/history.csv
Output file: championship/lizzie-iii-jykchess/move.csv
Turn of: white
Succesful move
d2d3
8 | R N B Q K B N R 
7 | P P P P P P P P 
6 | _ _ _ _ _ _ _ _ 
5 | _ _ _ _ _ _ _ _ 
4 | _ _ _ _ _ _ _ _ 
3 | _ _ _ P _ _ _ _ 
2 | P P P _ P P P P 
1 | R N B Q K B N R 
-------------------
  | A B C D E F G H 

Turn of: black
Succesful move
d7d6
8 | R N B Q K B N R 
7 | P P P _ P P P P 
6 | _ _ _ P _ _ _ _ 
5 | _ _ _ _ _ _ _ _ 
4 | _ _ _ _ _ _ _ _ 
3 | _ _ _ P _ _ _ _ 
2 | P P P _ P P P P 
1 | R N B Q K B N R 
-------------------
  | A B C D E F G H 

Turn of: white
Succesful move
c2c4
8 | R N B Q K B N R 
7 | P P P _ P P P P 
6 | _ _ _ P _ _ _ _ 
5 | _ _ _ _ _ _ _ _ 
4 | _ _ P _ _ _ _ _ 
3 | _ _ _ P _ _ _ _ 
2 | P P _ _ P P P P 
1 | R N B Q K B N R 
-------------------
  | A B C D E F G H 

Turn of: black
Succesful move
b8c6
8 | R _ B Q K B N R 
7 | P P P _ P P P P 
6 | _ _ N P _ _ _ _ 
5 | _ _ _ _ _ _ _ _ 
4 | _ _ P _ _ _ _ _ 
3 | _ _ _ P _ _ _ _ 
2 | P P _ _ P P P P 
1 | R N B Q K B N R 
-------------------
  | A B C D E F G H 

Turn of: white
Succesful move
c1g5
8 | R _ B Q K B N R 
7 | P P P _ P P P P 
6 | _ _ N P _ _ _ _ 
5 | _ _ _ _ _ _ B _ 
4 | _ _ P _ _ _ _ _ 
3 | _ _ _ P _ _ _ _ 
2 | P P _ _ P P P P 
1 | R N _ Q K B N R 
-------------------
  | A B C D E F G H 

Turn of: black
Succesful move
c8d7
8 | R _ _ Q K B N R 
7 | P P P B P P P P 
6 | _ _ N P _ _ _ _ 
5 | _ _ _ _ _ _ B _ 
4 | _ _ P _ _ _ _ _ 
3 | _ _ _ P _ _ _ _ 
2 | P P _ _ P P P P 
1 | R N _ Q K B N R 
-------------------
  | A B C D E F G H 

Turn of: white
Succesful move
g2g4
8 | R _ _ Q K B N R 
7 | P P P B P P P P 
6 | _ _ N P _ _ _ _ 
5 | _ _ _ _ _ _ B _ 
4 | _ _ P _ _ _ P _ 
3 | _ _ _ P _ _ _ _ 
2 | P P _ _ P P _ P 
1 | R N _ Q K B N R 
-------------------
  | A B C D E F G H 

Turn of: black
Succesful move
a8c8
8 | _ _ R Q K B N R 
7 | P P P B P P P P 
6 | _ _ N P _ _ _ _ 
5 | _ _ _ _ _ _ B _ 
4 | _ _ P _ _ _ P _ 
3 | _ _ _ P _ _ _ _ 
2 | P P _ _ P P _ P 
1 | R N _ Q K B N R 
-------------------
  | A B C D E F G H 

Turn of: white
Succesful move
b1a3
8 | _ _ R Q K B N R 
7 | P P P B P P P P 
6 | _ _ N P _ _ _ _ 
5 | _ _ _ _ _ _ B _ 
4 | _ _ P _ _ _ P _ 
3 | N _ _ P _ _ _ _ 
2 | P P _ _ P P _ P 
1 | R _ _ Q K B N R 
-------------------
  | A B C D E F G H 

Turn of: black
Succesful move
d7g4
8 | _ _ R Q K B N R 
7 | P P P _ P P P P 
6 | _ _ N P _ _ _ _ 
5 | _ _ _ _ _ _ B _ 
4 | _ _ P _ _ _ B _ 
3 | N _ _ P _ _ _ _ 
2 | P P _ _ P P _ P 
1 | R _ _ Q K B N R 
-------------------
  | A B C D E F G H 

We are playing as White
Move history:
d2d3
d7d6
c2c4
b8c6
c1g5
c8d7
g2g4
a8c8
b1a3
d7g4
8 | _ _ R Q K B N R 
7 | P P P _ P P P P 
6 | _ _ N P _ _ _ _ 
5 | _ _ _ _ _ _ B _ 
4 | _ _ P _ _ _ B _ 
3 | N _ _ P _ _ _ _ 
2 | P P _ _ P P _ P 
1 | R _ _ Q K B N R 
-------------------
  | A B C D E F G H 

It is white's turn to play.
AI's move: g5f6
Move written: g5f6
[32;1m[Game] [0mPlayer's error code: 0
[32;1m[Game] [0mChecking move validity...
[32;1m[Board] [0mInitializing board...
[32;1m[Board] [0mLoading history file `championship/lizzie-iii-jykchess/history.csv`...
[32;1m[Board] [0mLoaded 10 move(s).
[32;1m[Board] [0mLoading move file `championship/lizzie-iii-jykchess/move.csv`...
[32;1m[Board] [0mWhite player is playing g5 to f6.
[32;1m[Board] [0m
[32;1m[Board] [0m    a b c d e f g h 
[32;1m[Board] [0m  -------------------
[32;1m[Board] [0m8 ||[7;1m [0m| |[30;1mr[0m|[30;1mQ[0m|[30;1mK[0m|[30;1mb[0m|[30;1mk[0m|[30;1mr[0m|| 8
[32;1m[Board] [0m  -------------------
[32;1m[Board] [0m7 ||[30;1mp[0m|[30;1mp[0m|[30;1mp[0m|[7;1m [0m|[30;1mp[0m|[30;1mp[0m|[30;1mp[0m|[30;1mp[0m|| 7
[32;1m[Board] [0m  -------------------
[32;1m[Board] [0m6 ||[7;1m [0m| |[30;1mk[0m|[30;1mp[0m|[7;1m [0m|[0;1mb[0m|[7;1m [0m| || 6
[32;1m[Board] [0m  -------------------
[32;1m[Board] [0m5 || |[7;1m [0m| |[7;1m [0m| |[7;1m [0m| |[7;1m [0m|| 5
[32;1m[Board] [0m  -------------------
[32;1m[Board] [0m4 ||[7;1m [0m| |[0;1mp[0m| |[7;1m [0m| |[30;1mb[0m| || 4
[32;1m[Board] [0m  -------------------
[32;1m[Board] [0m3 ||[0;1mk[0m|[7;1m [0m| |[0;1mp[0m| |[7;1m [0m| |[7;1m [0m|| 3
[32;1m[Board] [0m  -------------------
[32;1m[Board] [0m2 ||[0;1mp[0m|[0;1mp[0m|[7;1m [0m| |[0;1mp[0m|[0;1mp[0m|[7;1m [0m|[0;1mp[0m|| 2
[32;1m[Board] [0m  -------------------
[32;1m[Board] [0m1 ||[0;1mr[0m|[7;1m [0m| |[0;1mQ[0m|[0;1mK[0m|[0;1mb[0m|[0;1mk[0m|[0;1mr[0m|| 1
[32;1m[Board] [0m  -------------------
[32;1m[Board] [0m    a b c d e f g h
[32;1m[Board] [0m
[32;1m[Referee] [0mThis is the turn of the Black player...

Random next move for the current player: b7b6
[32;1m[Game] [0mPlayer's error code: 0
[32;1m[Game] [0mChecking move validity...
[32;1m[Board] [0mInitializing board...
[32;1m[Board] [0mLoading history file `championship/lizzie-iii-jykchess/history.csv`...
[32;1m[Board] [0mLoaded 11 move(s).
[32;1m[Board] [0mLoading move file `championship/lizzie-iii-jykchess/move.csv`...
[32;1m[Board] [0mBlack player is playing b7 to b6.
[32;1m[Board] [0m
[32;1m[Board] [0m    a b c d e f g h 
[32;1m[Board] [0m  -------------------
[32;1m[Board] [0m8 ||[7;1m [0m| |[30;1mr[0m|[30;1mQ[0m|[30;1mK[0m|[30;1mb[0m|[30;1mk[0m|[30;1mr[0m|| 8
[32;1m[Board] [0m  -------------------
[32;1m[Board] [0m7 ||[30;1mp[0m|[7;1m [0m|[30;1mp[0m|[7;1m [0m|[30;1mp[0m|[30;1mp[0m|[30;1mp[0m|[30;1mp[0m|| 7
[32;1m[Board] [0m  -------------------
[32;1m[Board] [0m6 ||[7;1m [0m|[30;1mp[0m|[30;1mk[0m|[30;1mp[0m|[7;1m [0m|[0;1mb[0m|[7;1m [0m| || 6
[32;1m[Board] [0m  -------------------
[32;1m[Board] [0m5 || |[7;1m [0m| |[7;1m [0m| |[7;1m [0m| |[7;1m [0m|| 5
[32;1m[Board] [0m  -------------------
[32;1m[Board] [0m4 ||[7;1m [0m| |[0;1mp[0m| |[7;1m [0m| |[30;1mb[0m| || 4
[32;1m[Board] [0m  -------------------
[32;1m[Board] [0m3 ||[0;1mk[0m|[7;1m [0m| |[0;1mp[0m| |[7;1m [0m| |[7;1m [0m|| 3
[32;1m[Board] [0m  -------------------
[32;1m[Board] [0m2 ||[0;1mp[0m|[0;1mp[0m|[7;1m [0m| |[0;1mp[0m|[0;1mp[0m|[7;1m [0m|[0;1mp[0m|| 2
[32;1m[Board] [0m  -------------------
[32;1m[Board] [0m1 ||[0;1mr[0m|[7;1m [0m| |[0;1mQ[0m|[0;1mK[0m|[0;1mb[0m|[0;1mk[0m|[0;1mr[0m|| 1
[32;1m[Board] [0m  -------------------
[32;1m[Board] [0m    a b c d e f g h
[32;1m[Board] [0m
[32;1m[Referee] [0mThis is the turn of the White player...
Input file: championship/lizzie-iii-jykchess/history.csv
Output file: championship/lizzie-iii-jykchess/move.csv
Turn of: white
Succesful move
d2d3
8 | R N B Q K B N R 
7 | P P P P P P P P 
6 | _ _ _ _ _ _ _ _ 
5 | _ _ _ _ _ _ _ _ 
4 | _ _ _ _ _ _ _ _ 
3 | _ _ _ P _ _ _ _ 
2 | P P P _ P P P P 
1 | R N B Q K B N R 
-------------------
  | A B C D E F G H 

Turn of: black
Succesful move
d7d6
8 | R N B Q K B N R 
7 | P P P _ P P P P 
6 | _ _ _ P _ _ _ _ 
5 | _ _ _ _ _ _ _ _ 
4 | _ _ _ _ _ _ _ _ 
3 | _ _ _ P _ _ _ _ 
2 | P P P _ P P P P 
1 | R N B Q K B N R 
-------------------
  | A B C D E F G H 

Turn of: white
Succesful move
c2c4
8 | R N B Q K B N R 
7 | P P P _ P P P P 
6 | _ _ _ P _ _ _ _ 
5 | _ _ _ _ _ _ _ _ 
4 | _ _ P _ _ _ _ _ 
3 | _ _ _ P _ _ _ _ 
2 | P P _ _ P P P P 
1 | R N B Q K B N R 
-------------------
  | A B C D E F G H 

Turn of: black
Succesful move
b8c6
8 | R _ B Q K B N R 
7 | P P P _ P P P P 
6 | _ _ N P _ _ _ _ 
5 | _ _ _ _ _ _ _ _ 
4 | _ _ P _ _ _ _ _ 
3 | _ _ _ P _ _ _ _ 
2 | P P _ _ P P P P 
1 | R N B Q K B N R 
-------------------
  | A B C D E F G H 

Turn of: white
Succesful move
c1g5
8 | R _ B Q K B N R 
7 | P P P _ P P P P 
6 | _ _ N P _ _ _ _ 
5 | _ _ _ _ _ _ B _ 
4 | _ _ P _ _ _ _ _ 
3 | _ _ _ P _ _ _ _ 
2 | P P _ _ P P P P 
1 | R N _ Q K B N R 
-------------------
  | A B C D E F G H 

Turn of: black
Succesful move
c8d7
8 | R _ _ Q K B N R 
7 | P P P B P P P P 
6 | _ _ N P _ _ _ _ 
5 | _ _ _ _ _ _ B _ 
4 | _ _ P _ _ _ _ _ 
3 | _ _ _ P _ _ _ _ 
2 | P P _ _ P P P P 
1 | R N _ Q K B N R 
-------------------
  | A B C D E F G H 

Turn of: white
Succesful move
g2g4
8 | R _ _ Q K B N R 
7 | P P P B P P P P 
6 | _ _ N P _ _ _ _ 
5 | _ _ _ _ _ _ B _ 
4 | _ _ P _ _ _ P _ 
3 | _ _ _ P _ _ _ _ 
2 | P P _ _ P P _ P 
1 | R N _ Q K B N R 
-------------------
  | A B C D E F G H 

Turn of: black
Succesful move
a8c8
8 | _ _ R Q K B N R 
7 | P P P B P P P P 
6 | _ _ N P _ _ _ _ 
5 | _ _ _ _ _ _ B _ 
4 | _ _ P _ _ _ P _ 
3 | _ _ _ P _ _ _ _ 
2 | P P _ _ P P _ P 
1 | R N _ Q K B N R 
-------------------
  | A B C D E F G H 

Turn of: white
Succesful move
b1a3
8 | _ _ R Q K B N R 
7 | P P P B P P P P 
6 | _ _ N P _ _ _ _ 
5 | _ _ _ _ _ _ B _ 
4 | _ _ P _ _ _ P _ 
3 | N _ _ P _ _ _ _ 
2 | P P _ _ P P _ P 
1 | R _ _ Q K B N R 
-------------------
  | A B C D E F G H 

Turn of: black
Succesful move
d7g4
8 | _ _ R Q K B N R 
7 | P P P _ P P P P 
6 | _ _ N P _ _ _ _ 
5 | _ _ _ _ _ _ B _ 
4 | _ _ P _ _ _ B _ 
3 | N _ _ P _ _ _ _ 
2 | P P _ _ P P _ P 
1 | R _ _ Q K B N R 
-------------------
  | A B C D E F G H 

Turn of: white
Succesful move
g5f6
8 | _ _ R Q K B N R 
7 | P P P _ P P P P 
6 | _ _ N P _ B _ _ 
5 | _ _ _ _ _ _ _ _ 
4 | _ _ P _ _ _ B _ 
3 | N _ _ P _ _ _ _ 
2 | P P _ _ P P _ P 
1 | R _ _ Q K B N R 
-------------------
  | A B C D E F G H 

Turn of: black
Succesful move
b7b6
8 | _ _ R Q K B N R 
7 | P _ P _ P P P P 
6 | _ P N P _ B _ _ 
5 | _ _ _ _ _ _ _ _ 
4 | _ _ P _ _ _ B _ 
3 | N _ _ P _ _ _ _ 
2 | P P _ _ P P _ P 
1 | R _ _ Q K B N R 
-------------------
  | A B C D E F G H 

We are playing as White
Move history:
d2d3
d7d6
c2c4
b8c6
c1g5
c8d7
g2g4
a8c8
b1a3
d7g4
g5f6
b7b6
8 | _ _ R Q K B N R 
7 | P _ P _ P P P P 
6 | _ P N P _ B _ _ 
5 | _ _ _ _ _ _ _ _ 
4 | _ _ P _ _ _ B _ 
3 | N _ _ P _ _ _ _ 
2 | P P _ _ P P _ P 
1 | R _ _ Q K B N R 
-------------------
  | A B C D E F G H 

It is white's turn to play.
AI's move: h2h3
Move written: h2h3
[32;1m[Game] [0mPlayer's error code: 0
[32;1m[Game] [0mChecking move validity...
[32;1m[Board] [0mInitializing board...
[32;1m[Board] [0mLoading history file `championship/lizzie-iii-jykchess/history.csv`...
[32;1m[Board] [0mLoaded 12 move(s).
[32;1m[Board] [0mLoading move file `championship/lizzie-iii-jykchess/move.csv`...
[32;1m[Board] [0mWhite player is playing h2 to h3.
[32;1m[Board] [0m
[32;1m[Board] [0m    a b c d e f g h 
[32;1m[Board] [0m  -------------------
[32;1m[Board] [0m8 ||[7;1m [0m| |[30;1mr[0m|[30;1mQ[0m|[30;1mK[0m|[30;1mb[0m|[30;1mk[0m|[30;1mr[0m|| 8
[32;1m[Board] [0m  -------------------
[32;1m[Board] [0m7 ||[30;1mp[0m|[7;1m [0m|[30;1mp[0m|[7;1m [0m|[30;1mp[0m|[30;1mp[0m|[30;1mp[0m|[30;1mp[0m|| 7
[32;1m[Board] [0m  -------------------
[32;1m[Board] [0m6 ||[7;1m [0m|[30;1mp[0m|[30;1mk[0m|[30;1mp[0m|[7;1m [0m|[0;1mb[0m|[7;1m [0m| || 6
[32;1m[Board] [0m  -------------------
[32;1m[Board] [0m5 || |[7;1m [0m| |[7;1m [0m| |[7;1m [0m| |[7;1m [0m|| 5
[32;1m[Board] [0m  -------------------
[32;1m[Board] [0m4 ||[7;1m [0m| |[0;1mp[0m| |[7;1m [0m| |[30;1mb[0m| || 4
[32;1m[Board] [0m  -------------------
[32;1m[Board] [0m3 ||[0;1mk[0m|[7;1m [0m| |[0;1mp[0m| |[7;1m [0m| |[0;1mp[0m|| 3
[32;1m[Board] [0m  -------------------
[32;1m[Board] [0m2 ||[0;1mp[0m|[0;1mp[0m|[7;1m [0m| |[0;1mp[0m|[0;1mp[0m|[7;1m [0m| || 2
[32;1m[Board] [0m  -------------------
[32;1m[Board] [0m1 ||[0;1mr[0m|[7;1m [0m| |[0;1mQ[0m|[0;1mK[0m|[0;1mb[0m|[0;1mk[0m|[0;1mr[0m|| 1
[32;1m[Board] [0m  -------------------
[32;1m[Board] [0m    a b c d e f g h
[32;1m[Board] [0m
[32;1m[Referee] [0mThis is the turn of the Black player...

Random next move for the current player: g4f3
[32;1m[Game] [0mPlayer's error code: 0
[32;1m[Game] [0mChecking move validity...
[32;1m[Board] [0mInitializing board...
[32;1m[Board] [0mLoading history file `championship/lizzie-iii-jykchess/history.csv`...
[32;1m[Board] [0mLoaded 13 move(s).
[32;1m[Board] [0mLoading move file `championship/lizzie-iii-jykchess/move.csv`...
[32;1m[Board] [0mBlack player is playing g4 to f3.
[32;1m[Board] [0m
[32;1m[Board] [0m    a b c d e f g h 
[32;1m[Board] [0m  -------------------
[32;1m[Board] [0m8 ||[7;1m [0m| |[30;1mr[0m|[30;1mQ[0m|[30;1mK[0m|[30;1mb[0m|[30;1mk[0m|[30;1mr[0m|| 8
[32;1m[Board] [0m  -------------------
[32;1m[Board] [0m7 ||[30;1mp[0m|[7;1m [0m|[30;1mp[0m|[7;1m [0m|[30;1mp[0m|[30;1mp[0m|[30;1mp[0m|[30;1mp[0m|| 7
[32;1m[Board] [0m  -------------------
[32;1m[Board] [0m6 ||[7;1m [0m|[30;1mp[0m|[30;1mk[0m|[30;1mp[0m|[7;1m [0m|[0;1mb[0m|[7;1m [0m| || 6
[32;1m[Board] [0m  -------------------
[32;1m[Board] [0m5 || |[7;1m [0m| |[7;1m [0m| |[7;1m [0m| |[7;1m [0m|| 5
[32;1m[Board] [0m  -------------------
[32;1m[Board] [0m4 ||[7;1m [0m| |[0;1mp[0m| |[7;1m [0m| |[7;1m [0m| || 4
[32;1m[Board] [0m  -------------------
[32;1m[Board] [0m3 ||[0;1mk[0m|[7;1m [0m| |[0;1mp[0m| |[30;1mb[0m| |[0;1mp[0m|| 3
[32;1m[Board] [0m  -------------------
[32;1m[Board] [0m2 ||[0;1mp[0m|[0;1mp[0m|[7;1m [0m| |[0;1mp[0m|[0;1mp[0m|[7;1m [0m| || 2
[32;1m[Board] [0m  -------------------
[32;1m[Board] [0m1 ||[0;1mr[0m|[7;1m [0m| |[0;1mQ[0m|[0;1mK[0m|[0;1mb[0m|[0;1mk[0m|[0;1mr[0m|| 1
[32;1m[Board] [0m  -------------------
[32;1m[Board] [0m    a b c d e f g h
[32;1m[Board] [0m
[32;1m[Referee] [0mThis is the turn of the White player...
Input file: championship/lizzie-iii-jykchess/history.csv
Output file: championship/lizzie-iii-jykchess/move.csv
Turn of: white
Succesful move
d2d3
8 | R N B Q K B N R 
7 | P P P P P P P P 
6 | _ _ _ _ _ _ _ _ 
5 | _ _ _ _ _ _ _ _ 
4 | _ _ _ _ _ _ _ _ 
3 | _ _ _ P _ _ _ _ 
2 | P P P _ P P P P 
1 | R N B Q K B N R 
-------------------
  | A B C D E F G H 

Turn of: black
Succesful move
d7d6
8 | R N B Q K B N R 
7 | P P P _ P P P P 
6 | _ _ _ P _ _ _ _ 
5 | _ _ _ _ _ _ _ _ 
4 | _ _ _ _ _ _ _ _ 
3 | _ _ _ P _ _ _ _ 
2 | P P P _ P P P P 
1 | R N B Q K B N R 
-------------------
  | A B C D E F G H 

Turn of: white
Succesful move
c2c4
8 | R N B Q K B N R 
7 | P P P _ P P P P 
6 | _ _ _ P _ _ _ _ 
5 | _ _ _ _ _ _ _ _ 
4 | _ _ P _ _ _ _ _ 
3 | _ _ _ P _ _ _ _ 
2 | P P _ _ P P P P 
1 | R N B Q K B N R 
-------------------
  | A B C D E F G H 

Turn of: black
Succesful move
b8c6
8 | R _ B Q K B N R 
7 | P P P _ P P P P 
6 | _ _ N P _ _ _ _ 
5 | _ _ _ _ _ _ _ _ 
4 | _ _ P _ _ _ _ _ 
3 | _ _ _ P _ _ _ _ 
2 | P P _ _ P P P P 
1 | R N B Q K B N R 
-------------------
  | A B C D E F G H 

Turn of: white
Succesful move
c1g5
8 | R _ B Q K B N R 
7 | P P P _ P P P P 
6 | _ _ N P _ _ _ _ 
5 | _ _ _ _ _ _ B _ 
4 | _ _ P _ _ _ _ _ 
3 | _ _ _ P _ _ _ _ 
2 | P P _ _ P P P P 
1 | R N _ Q K B N R 
-------------------
  | A B C D E F G H 

Turn of: black
Succesful move
c8d7
8 | R _ _ Q K B N R 
7 | P P P B P P P P 
6 | _ _ N P _ _ _ _ 
5 | _ _ _ _ _ _ B _ 
4 | _ _ P _ _ _ _ _ 
3 | _ _ _ P _ _ _ _ 
2 | P P _ _ P P P P 
1 | R N _ Q K B N R 
-------------------
  | A B C D E F G H 

Turn of: white
Succesful move
g2g4
8 | R _ _ Q K B N R 
7 | P P P B P P P P 
6 | _ _ N P _ _ _ _ 
5 | _ _ _ _ _ _ B _ 
4 | _ _ P _ _ _ P _ 
3 | _ _ _ P _ _ _ _ 
2 | P P _ _ P P _ P 
1 | R N _ Q K B N R 
-------------------
  | A B C D E F G H 

Turn of: black
Succesful move
a8c8
8 | _ _ R Q K B N R 
7 | P P P B P P P P 
6 | _ _ N P _ _ _ _ 
5 | _ _ _ _ _ _ B _ 
4 | _ _ P _ _ _ P _ 
3 | _ _ _ P _ _ _ _ 
2 | P P _ _ P P _ P 
1 | R N _ Q K B N R 
-------------------
  | A B C D E F G H 

Turn of: white
Succesful move
b1a3
8 | _ _ R Q K B N R 
7 | P P P B P P P P 
6 | _ _ N P _ _ _ _ 
5 | _ _ _ _ _ _ B _ 
4 | _ _ P _ _ _ P _ 
3 | N _ _ P _ _ _ _ 
2 | P P _ _ P P _ P 
1 | R _ _ Q K B N R 
-------------------
  | A B C D E F G H 

Turn of: black
Succesful move
d7g4
8 | _ _ R Q K B N R 
7 | P P P _ P P P P 
6 | _ _ N P _ _ _ _ 
5 | _ _ _ _ _ _ B _ 
4 | _ _ P _ _ _ B _ 
3 | N _ _ P _ _ _ _ 
2 | P P _ _ P P _ P 
1 | R _ _ Q K B N R 
-------------------
  | A B C D E F G H 

Turn of: white
Succesful move
g5f6
8 | _ _ R Q K B N R 
7 | P P P _ P P P P 
6 | _ _ N P _ B _ _ 
5 | _ _ _ _ _ _ _ _ 
4 | _ _ P _ _ _ B _ 
3 | N _ _ P _ _ _ _ 
2 | P P _ _ P P _ P 
1 | R _ _ Q K B N R 
-------------------
  | A B C D E F G H 

Turn of: black
Succesful move
b7b6
8 | _ _ R Q K B N R 
7 | P _ P _ P P P P 
6 | _ P N P _ B _ _ 
5 | _ _ _ _ _ _ _ _ 
4 | _ _ P _ _ _ B _ 
3 | N _ _ P _ _ _ _ 
2 | P P _ _ P P _ P 
1 | R _ _ Q K B N R 
-------------------
  | A B C D E F G H 

Turn of: white
Succesful move
h2h3
8 | _ _ R Q K B N R 
7 | P _ P _ P P P P 
6 | _ P N P _ B _ _ 
5 | _ _ _ _ _ _ _ _ 
4 | _ _ P _ _ _ B _ 
3 | N _ _ P _ _ _ P 
2 | P P _ _ P P _ _ 
1 | R _ _ Q K B N R 
-------------------
  | A B C D E F G H 

Turn of: black
Succesful move
g4f3
8 | _ _ R Q K B N R 
7 | P _ P _ P P P P 
6 | _ P N P _ B _ _ 
5 | _ _ _ _ _ _ _ _ 
4 | _ _ P _ _ _ _ _ 
3 | N _ _ P _ B _ P 
2 | P P _ _ P P _ _ 
1 | R _ _ Q K B N R 
-------------------
  | A B C D E F G H 

We are playing as White
Move history:
d2d3
d7d6
c2c4
b8c6
c1g5
c8d7
g2g4
a8c8
b1a3
d7g4
g5f6
b7b6
h2h3
g4f3
8 | _ _ R Q K B N R 
7 | P _ P _ P P P P 
6 | _ P N P _ B _ _ 
5 | _ _ _ _ _ _ _ _ 
4 | _ _ P _ _ _ _ _ 
3 | N _ _ P _ B _ P 
2 | P P _ _ P P _ _ 
1 | R _ _ Q K B N R 
-------------------
  | A B C D E F G H 

It is white's turn to play.
AI's move: g1f3
Move written: g1f3
[32;1m[Game] [0mPlayer's error code: 0
[32;1m[Game] [0mChecking move validity...
[32;1m[Board] [0mInitializing board...
[32;1m[Board] [0mLoading history file `championship/lizzie-iii-jykchess/history.csv`...
[32;1m[Board] [0mLoaded 14 move(s).
[32;1m[Board] [0mLoading move file `championship/lizzie-iii-jykchess/move.csv`...
[32;1m[Board] [0mWhite player is playing g1 to f3.
[32;1m[Board] [0m[5;1mWhite Knight is taking Black Bishop.[0m
[32;1m[Board] [0m
[32;1m[Board] [0m    a b c d e f g h 
[32;1m[Board] [0m  -------------------
[32;1m[Board] [0m8 ||[7;1m [0m| |[30;1mr[0m|[30;1mQ[0m|[30;1mK[0m|[30;1mb[0m|[30;1mk[0m|[30;1mr[0m|| 8
[32;1m[Board] [0m  -------------------
[32;1m[Board] [0m7 ||[30;1mp[0m|[7;1m [0m|[30;1mp[0m|[7;1m [0m|[30;1mp[0m|[30;1mp[0m|[30;1mp[0m|[30;1mp[0m|| 7
[32;1m[Board] [0m  -------------------
[32;1m[Board] [0m6 ||[7;1m [0m|[30;1mp[0m|[30;1mk[0m|[30;1mp[0m|[7;1m [0m|[0;1mb[0m|[7;1m [0m| || 6
[32;1m[Board] [0m  -------------------
[32;1m[Board] [0m5 || |[7;1m [0m| |[7;1m [0m| |[7;1m [0m| |[7;1m [0m|| 5
[32;1m[Board] [0m  -------------------
[32;1m[Board] [0m4 ||[7;1m [0m| |[0;1mp[0m| |[7;1m [0m| |[7;1m [0m| || 4
[32;1m[Board] [0m  -------------------
[32;1m[Board] [0m3 ||[0;1mk[0m|[7;1m [0m| |[0;1mp[0m| |[0;1mk[0m| |[0;1mp[0m|| 3
[32;1m[Board] [0m  -------------------
[32;1m[Board] [0m2 ||[0;1mp[0m|[0;1mp[0m|[7;1m [0m| |[0;1mp[0m|[0;1mp[0m|[7;1m [0m| || 2
[32;1m[Board] [0m  -------------------
[32;1m[Board] [0m1 ||[0;1mr[0m|[7;1m [0m| |[0;1mQ[0m|[0;1mK[0m|[0;1mb[0m| |[0;1mr[0m|| 1
[32;1m[Board] [0m  -------------------
[32;1m[Board] [0m    a b c d e f g h
[32;1m[Board] [0m
[32;1m[Referee] [0mThis is the turn of the Black player...

Random next move for the current player: c6e5
[32;1m[Game] [0mPlayer's error code: 0
[32;1m[Game] [0mChecking move validity...
[32;1m[Board] [0mInitializing board...
[32;1m[Board] [0mLoading history file `championship/lizzie-iii-jykchess/history.csv`...
[32;1m[Board] [0mLoaded 15 move(s).
[32;1m[Board] [0mLoading move file `championship/lizzie-iii-jykchess/move.csv`...
[32;1m[Board] [0mBlack player is playing c6 to e5.
[32;1m[Board] [0m
[32;1m[Board] [0m    a b c d e f g h 
[32;1m[Board] [0m  -------------------
[32;1m[Board] [0m8 ||[7;1m [0m| |[30;1mr[0m|[30;1mQ[0m|[30;1mK[0m|[30;1mb[0m|[30;1mk[0m|[30;1mr[0m|| 8
[32;1m[Board] [0m  -------------------
[32;1m[Board] [0m7 ||[30;1mp[0m|[7;1m [0m|[30;1mp[0m|[7;1m [0m|[30;1mp[0m|[30;1mp[0m|[30;1mp[0m|[30;1mp[0m|| 7
[32;1m[Board] [0m  -------------------
[32;1m[Board] [0m6 ||[7;1m [0m|[30;1mp[0m|[7;1m [0m|[30;1mp[0m|[7;1m [0m|[0;1mb[0m|[7;1m [0m| || 6
[32;1m[Board] [0m  -------------------
[32;1m[Board] [0m5 || |[7;1m [0m| |[7;1m [0m|[30;1mk[0m|[7;1m [0m| |[7;1m [0m|| 5
[32;1m[Board] [0m  -------------------
[32;1m[Board] [0m4 ||[7;1m [0m| |[0;1mp[0m| |[7;1m [0m| |[7;1m [0m| || 4
[32;1m[Board] [0m  -------------------
[32;1m[Board] [0m3 ||[0;1mk[0m|[7;1m [0m| |[0;1mp[0m| |[0;1mk[0m| |[0;1mp[0m|| 3
[32;1m[Board] [0m  -------------------
[32;1m[Board] [0m2 ||[0;1mp[0m|[0;1mp[0m|[7;1m [0m| |[0;1mp[0m|[0;1mp[0m|[7;1m [0m| || 2
[32;1m[Board] [0m  -------------------
[32;1m[Board] [0m1 ||[0;1mr[0m|[7;1m [0m| |[0;1mQ[0m|[0;1mK[0m|[0;1mb[0m| |[0;1mr[0m|| 1
[32;1m[Board] [0m  -------------------
[32;1m[Board] [0m    a b c d e f g h
[32;1m[Board] [0m
[32;1m[Referee] [0mThis is the turn of the White player...
Input file: championship/lizzie-iii-jykchess/history.csv
Output file: championship/lizzie-iii-jykchess/move.csv
Turn of: white
Succesful move
d2d3
8 | R N B Q K B N R 
7 | P P P P P P P P 
6 | _ _ _ _ _ _ _ _ 
5 | _ _ _ _ _ _ _ _ 
4 | _ _ _ _ _ _ _ _ 
3 | _ _ _ P _ _ _ _ 
2 | P P P _ P P P P 
1 | R N B Q K B N R 
-------------------
  | A B C D E F G H 

Turn of: black
Succesful move
d7d6
8 | R N B Q K B N R 
7 | P P P _ P P P P 
6 | _ _ _ P _ _ _ _ 
5 | _ _ _ _ _ _ _ _ 
4 | _ _ _ _ _ _ _ _ 
3 | _ _ _ P _ _ _ _ 
2 | P P P _ P P P P 
1 | R N B Q K B N R 
-------------------
  | A B C D E F G H 

Turn of: white
Succesful move
c2c4
8 | R N B Q K B N R 
7 | P P P _ P P P P 
6 | _ _ _ P _ _ _ _ 
5 | _ _ _ _ _ _ _ _ 
4 | _ _ P _ _ _ _ _ 
3 | _ _ _ P _ _ _ _ 
2 | P P _ _ P P P P 
1 | R N B Q K B N R 
-------------------
  | A B C D E F G H 

Turn of: black
Succesful move
b8c6
8 | R _ B Q K B N R 
7 | P P P _ P P P P 
6 | _ _ N P _ _ _ _ 
5 | _ _ _ _ _ _ _ _ 
4 | _ _ P _ _ _ _ _ 
3 | _ _ _ P _ _ _ _ 
2 | P P _ _ P P P P 
1 | R N B Q K B N R 
-------------------
  | A B C D E F G H 

Turn of: white
Succesful move
c1g5
8 | R _ B Q K B N R 
7 | P P P _ P P P P 
6 | _ _ N P _ _ _ _ 
5 | _ _ _ _ _ _ B _ 
4 | _ _ P _ _ _ _ _ 
3 | _ _ _ P _ _ _ _ 
2 | P P _ _ P P P P 
1 | R N _ Q K B N R 
-------------------
  | A B C D E F G H 

Turn of: black
Succesful move
c8d7
8 | R _ _ Q K B N R 
7 | P P P B P P P P 
6 | _ _ N P _ _ _ _ 
5 | _ _ _ _ _ _ B _ 
4 | _ _ P _ _ _ _ _ 
3 | _ _ _ P _ _ _ _ 
2 | P P _ _ P P P P 
1 | R N _ Q K B N R 
-------------------
  | A B C D E F G H 

Turn of: white
Succesful move
g2g4
8 | R _ _ Q K B N R 
7 | P P P B P P P P 
6 | _ _ N P _ _ _ _ 
5 | _ _ _ _ _ _ B _ 
4 | _ _ P _ _ _ P _ 
3 | _ _ _ P _ _ _ _ 
2 | P P _ _ P P _ P 
1 | R N _ Q K B N R 
-------------------
  | A B C D E F G H 

Turn of: black
Succesful move
a8c8
8 | _ _ R Q K B N R 
7 | P P P B P P P P 
6 | _ _ N P _ _ _ _ 
5 | _ _ _ _ _ _ B _ 
4 | _ _ P _ _ _ P _ 
3 | _ _ _ P _ _ _ _ 
2 | P P _ _ P P _ P 
1 | R N _ Q K B N R 
-------------------
  | A B C D E F G H 

Turn of: white
Succesful move
b1a3
8 | _ _ R Q K B N R 
7 | P P P B P P P P 
6 | _ _ N P _ _ _ _ 
5 | _ _ _ _ _ _ B _ 
4 | _ _ P _ _ _ P _ 
3 | N _ _ P _ _ _ _ 
2 | P P _ _ P P _ P 
1 | R _ _ Q K B N R 
-------------------
  | A B C D E F G H 

Turn of: black
Succesful move
d7g4
8 | _ _ R Q K B N R 
7 | P P P _ P P P P 
6 | _ _ N P _ _ _ _ 
5 | _ _ _ _ _ _ B _ 
4 | _ _ P _ _ _ B _ 
3 | N _ _ P _ _ _ _ 
2 | P P _ _ P P _ P 
1 | R _ _ Q K B N R 
-------------------
  | A B C D E F G H 

Turn of: white
Succesful move
g5f6
8 | _ _ R Q K B N R 
7 | P P P _ P P P P 
6 | _ _ N P _ B _ _ 
5 | _ _ _ _ _ _ _ _ 
4 | _ _ P _ _ _ B _ 
3 | N _ _ P _ _ _ _ 
2 | P P _ _ P P _ P 
1 | R _ _ Q K B N R 
-------------------
  | A B C D E F G H 

Turn of: black
Succesful move
b7b6
8 | _ _ R Q K B N R 
7 | P _ P _ P P P P 
6 | _ P N P _ B _ _ 
5 | _ _ _ _ _ _ _ _ 
4 | _ _ P _ _ _ B _ 
3 | N _ _ P _ _ _ _ 
2 | P P _ _ P P _ P 
1 | R _ _ Q K B N R 
-------------------
  | A B C D E F G H 

Turn of: white
Succesful move
h2h3
8 | _ _ R Q K B N R 
7 | P _ P _ P P P P 
6 | _ P N P _ B _ _ 
5 | _ _ _ _ _ _ _ _ 
4 | _ _ P _ _ _ B _ 
3 | N _ _ P _ _ _ P 
2 | P P _ _ P P _ _ 
1 | R _ _ Q K B N R 
-------------------
  | A B C D E F G H 

Turn of: black
Succesful move
g4f3
8 | _ _ R Q K B N R 
7 | P _ P _ P P P P 
6 | _ P N P _ B _ _ 
5 | _ _ _ _ _ _ _ _ 
4 | _ _ P _ _ _ _ _ 
3 | N _ _ P _ B _ P 
2 | P P _ _ P P _ _ 
1 | R _ _ Q K B N R 
-------------------
  | A B C D E F G H 

Turn of: white
Succesful move
g1f3
8 | _ _ R Q K B N R 
7 | P _ P _ P P P P 
6 | _ P N P _ B _ _ 
5 | _ _ _ _ _ _ _ _ 
4 | _ _ P _ _ _ _ _ 
3 | N _ _ P _ N _ P 
2 | P P _ _ P P _ _ 
1 | R _ _ Q K B _ R 
-------------------
  | A B C D E F G H 

Turn of: black
Succesful move
c6e5
8 | _ _ R Q K B N R 
7 | P _ P _ P P P P 
6 | _ P _ P _ B _ _ 
5 | _ _ _ _ N _ _ _ 
4 | _ _ P _ _ _ _ _ 
3 | N _ _ P _ N _ P 
2 | P P _ _ P P _ _ 
1 | R _ _ Q K B _ R 
-------------------
  | A B C D E F G H 

We are playing as White
Move history:
d2d3
d7d6
c2c4
b8c6
c1g5
c8d7
g2g4
a8c8
b1a3
d7g4
g5f6
b7b6
h2h3
g4f3
g1f3
c6e5
8 | _ _ R Q K B N R 
7 | P _ P _ P P P P 
6 | _ P _ P _ B _ _ 
5 | _ _ _ _ N _ _ _ 
4 | _ _ P _ _ _ _ _ 
3 | N _ _ P _ N _ P 
2 | P P _ _ P P _ _ 
1 | R _ _ Q K B _ R 
-------------------
  | A B C D E F G H 

It is white's turn to play.
AI's move: d1d2
Move written: d1d2
[32;1m[Game] [0mPlayer's error code: 0
[32;1m[Game] [0mChecking move validity...
[32;1m[Board] [0mInitializing board...
[32;1m[Board] [0mLoading history file `championship/lizzie-iii-jykchess/history.csv`...
[32;1m[Board] [0mLoaded 16 move(s).
[32;1m[Board] [0mLoading move file `championship/lizzie-iii-jykchess/move.csv`...
[32;1m[Board] [0mWhite player is playing d1 to d2.
[32;1m[Board] [0m
[32;1m[Board] [0m    a b c d e f g h 
[32;1m[Board] [0m  -------------------
[32;1m[Board] [0m8 ||[7;1m [0m| |[30;1mr[0m|[30;1mQ[0m|[30;1mK[0m|[30;1mb[0m|[30;1mk[0m|[30;1mr[0m|| 8
[32;1m[Board] [0m  -------------------
[32;1m[Board] [0m7 ||[30;1mp[0m|[7;1m [0m|[30;1mp[0m|[7;1m [0m|[30;1mp[0m|[30;1mp[0m|[30;1mp[0m|[30;1mp[0m|| 7
[32;1m[Board] [0m  -------------------
[32;1m[Board] [0m6 ||[7;1m [0m|[30;1mp[0m|[7;1m [0m|[30;1mp[0m|[7;1m [0m|[0;1mb[0m|[7;1m [0m| || 6
[32;1m[Board] [0m  -------------------
[32;1m[Board] [0m5 || |[7;1m [0m| |[7;1m [0m|[30;1mk[0m|[7;1m [0m| |[7;1m [0m|| 5
[32;1m[Board] [0m  -------------------
[32;1m[Board] [0m4 ||[7;1m [0m| |[0;1mp[0m| |[7;1m [0m| |[7;1m [0m| || 4
[32;1m[Board] [0m  -------------------
[32;1m[Board] [0m3 ||[0;1mk[0m|[7;1m [0m| |[0;1mp[0m| |[0;1mk[0m| |[0;1mp[0m|| 3
[32;1m[Board] [0m  -------------------
[32;1m[Board] [0m2 ||[0;1mp[0m|[0;1mp[0m|[7;1m [0m|[0;1mQ[0m|[0;1mp[0m|[0;1mp[0m|[7;1m [0m| || 2
[32;1m[Board] [0m  -------------------
[32;1m[Board] [0m1 ||[0;1mr[0m|[7;1m [0m| |[7;1m [0m|[0;1mK[0m|[0;1mb[0m| |[0;1mr[0m|| 1
[32;1m[Board] [0m  -------------------
[32;1m[Board] [0m    a b c d e f g h
[32;1m[Board] [0m
[32;1m[Referee] [0mThis is the turn of the Black player...

Random next move for the current player: g8f6
[32;1m[Game] [0mPlayer's error code: 0
[32;1m[Game] [0mChecking move validity...
[32;1m[Board] [0mInitializing board...
[32;1m[Board] [0mLoading history file `championship/lizzie-iii-jykchess/history.csv`...
[32;1m[Board] [0mLoaded 17 move(s).
[32;1m[Board] [0mLoading move file `championship/lizzie-iii-jykchess/move.csv`...
[32;1m[Board] [0mBlack player is playing g8 to f6.
[32;1m[Board] [0m[5;1mBlack Knight is taking White Bishop.[0m
[32;1m[Board] [0m
[32;1m[Board] [0m    a b c d e f g h 
[32;1m[Board] [0m  -------------------
[32;1m[Board] [0m8 ||[7;1m [0m| |[30;1mr[0m|[30;1mQ[0m|[30;1mK[0m|[30;1mb[0m|[7;1m [0m|[30;1mr[0m|| 8
[32;1m[Board] [0m  -------------------
[32;1m[Board] [0m7 ||[30;1mp[0m|[7;1m [0m|[30;1mp[0m|[7;1m [0m|[30;1mp[0m|[30;1mp[0m|[30;1mp[0m|[30;1mp[0m|| 7
[32;1m[Board] [0m  -------------------
[32;1m[Board] [0m6 ||[7;1m [0m|[30;1mp[0m|[7;1m [0m|[30;1mp[0m|[7;1m [0m|[30;1mk[0m|[7;1m [0m| || 6
[32;1m[Board] [0m  -------------------
[32;1m[Board] [0m5 || |[7;1m [0m| |[7;1m [0m|[30;1mk[0m|[7;1m [0m| |[7;1m [0m|| 5
[32;1m[Board] [0m  -------------------
[32;1m[Board] [0m4 ||[7;1m [0m| |[0;1mp[0m| |[7;1m [0m| |[7;1m [0m| || 4
[32;1m[Board] [0m  -------------------
[32;1m[Board] [0m3 ||[0;1mk[0m|[7;1m [0m| |[0;1mp[0m| |[0;1mk[0m| |[0;1mp[0m|| 3
[32;1m[Board] [0m  -------------------
[32;1m[Board] [0m2 ||[0;1mp[0m|[0;1mp[0m|[7;1m [0m|[0;1mQ[0m|[0;1mp[0m|[0;1mp[0m|[7;1m [0m| || 2
[32;1m[Board] [0m  -------------------
[32;1m[Board] [0m1 ||[0;1mr[0m|[7;1m [0m| |[7;1m [0m|[0;1mK[0m|[0;1mb[0m| |[0;1mr[0m|| 1
[32;1m[Board] [0m  -------------------
[32;1m[Board] [0m    a b c d e f g h
[32;1m[Board] [0m
[32;1m[Referee] [0mThis is the turn of the White player...
Input file: championship/lizzie-iii-jykchess/history.csv
Output file: championship/lizzie-iii-jykchess/move.csv
Turn of: white
Succesful move
d2d3
8 | R N B Q K B N R 
7 | P P P P P P P P 
6 | _ _ _ _ _ _ _ _ 
5 | _ _ _ _ _ _ _ _ 
4 | _ _ _ _ _ _ _ _ 
3 | _ _ _ P _ _ _ _ 
2 | P P P _ P P P P 
1 | R N B Q K B N R 
-------------------
  | A B C D E F G H 

Turn of: black
Succesful move
d7d6
8 | R N B Q K B N R 
7 | P P P _ P P P P 
6 | _ _ _ P _ _ _ _ 
5 | _ _ _ _ _ _ _ _ 
4 | _ _ _ _ _ _ _ _ 
3 | _ _ _ P _ _ _ _ 
2 | P P P _ P P P P 
1 | R N B Q K B N R 
-------------------
  | A B C D E F G H 

Turn of: white
Succesful move
c2c4
8 | R N B Q K B N R 
7 | P P P _ P P P P 
6 | _ _ _ P _ _ _ _ 
5 | _ _ _ _ _ _ _ _ 
4 | _ _ P _ _ _ _ _ 
3 | _ _ _ P _ _ _ _ 
2 | P P _ _ P P P P 
1 | R N B Q K B N R 
-------------------
  | A B C D E F G H 

Turn of: black
Succesful move
b8c6
8 | R _ B Q K B N R 
7 | P P P _ P P P P 
6 | _ _ N P _ _ _ _ 
5 | _ _ _ _ _ _ _ _ 
4 | _ _ P _ _ _ _ _ 
3 | _ _ _ P _ _ _ _ 
2 | P P _ _ P P P P 
1 | R N B Q K B N R 
-------------------
  | A B C D E F G H 

Turn of: white
Succesful move
c1g5
8 | R _ B Q K B N R 
7 | P P P _ P P P P 
6 | _ _ N P _ _ _ _ 
5 | _ _ _ _ _ _ B _ 
4 | _ _ P _ _ _ _ _ 
3 | _ _ _ P _ _ _ _ 
2 | P P _ _ P P P P 
1 | R N _ Q K B N R 
-------------------
  | A B C D E F G H 

Turn of: black
Succesful move
c8d7
8 | R _ _ Q K B N R 
7 | P P P B P P P P 
6 | _ _ N P _ _ _ _ 
5 | _ _ _ _ _ _ B _ 
4 | _ _ P _ _ _ _ _ 
3 | _ _ _ P _ _ _ _ 
2 | P P _ _ P P P P 
1 | R N _ Q K B N R 
-------------------
  | A B C D E F G H 

Turn of: white
Succesful move
g2g4
8 | R _ _ Q K B N R 
7 | P P P B P P P P 
6 | _ _ N P _ _ _ _ 
5 | _ _ _ _ _ _ B _ 
4 | _ _ P _ _ _ P _ 
3 | _ _ _ P _ _ _ _ 
2 | P P _ _ P P _ P 
1 | R N _ Q K B N R 
-------------------
  | A B C D E F G H 

Turn of: black
Succesful move
a8c8
8 | _ _ R Q K B N R 
7 | P P P B P P P P 
6 | _ _ N P _ _ _ _ 
5 | _ _ _ _ _ _ B _ 
4 | _ _ P _ _ _ P _ 
3 | _ _ _ P _ _ _ _ 
2 | P P _ _ P P _ P 
1 | R N _ Q K B N R 
-------------------
  | A B C D E F G H 

Turn of: white
Succesful move
b1a3
8 | _ _ R Q K B N R 
7 | P P P B P P P P 
6 | _ _ N P _ _ _ _ 
5 | _ _ _ _ _ _ B _ 
4 | _ _ P _ _ _ P _ 
3 | N _ _ P _ _ _ _ 
2 | P P _ _ P P _ P 
1 | R _ _ Q K B N R 
-------------------
  | A B C D E F G H 

Turn of: black
Succesful move
d7g4
8 | _ _ R Q K B N R 
7 | P P P _ P P P P 
6 | _ _ N P _ _ _ _ 
5 | _ _ _ _ _ _ B _ 
4 | _ _ P _ _ _ B _ 
3 | N _ _ P _ _ _ _ 
2 | P P _ _ P P _ P 
1 | R _ _ Q K B N R 
-------------------
  | A B C D E F G H 

Turn of: white
Succesful move
g5f6
8 | _ _ R Q K B N R 
7 | P P P _ P P P P 
6 | _ _ N P _ B _ _ 
5 | _ _ _ _ _ _ _ _ 
4 | _ _ P _ _ _ B _ 
3 | N _ _ P _ _ _ _ 
2 | P P _ _ P P _ P 
1 | R _ _ Q K B N R 
-------------------
  | A B C D E F G H 

Turn of: black
Succesful move
b7b6
8 | _ _ R Q K B N R 
7 | P _ P _ P P P P 
6 | _ P N P _ B _ _ 
5 | _ _ _ _ _ _ _ _ 
4 | _ _ P _ _ _ B _ 
3 | N _ _ P _ _ _ _ 
2 | P P _ _ P P _ P 
1 | R _ _ Q K B N R 
-------------------
  | A B C D E F G H 

Turn of: white
Succesful move
h2h3
8 | _ _ R Q K B N R 
7 | P _ P _ P P P P 
6 | _ P N P _ B _ _ 
5 | _ _ _ _ _ _ _ _ 
4 | _ _ P _ _ _ B _ 
3 | N _ _ P _ _ _ P 
2 | P P _ _ P P _ _ 
1 | R _ _ Q K B N R 
-------------------
  | A B C D E F G H 

Turn of: black
Succesful move
g4f3
8 | _ _ R Q K B N R 
7 | P _ P _ P P P P 
6 | _ P N P _ B _ _ 
5 | _ _ _ _ _ _ _ _ 
4 | _ _ P _ _ _ _ _ 
3 | N _ _ P _ B _ P 
2 | P P _ _ P P _ _ 
1 | R _ _ Q K B N R 
-------------------
  | A B C D E F G H 

Turn of: white
Succesful move
g1f3
8 | _ _ R Q K B N R 
7 | P _ P _ P P P P 
6 | _ P N P _ B _ _ 
5 | _ _ _ _ _ _ _ _ 
4 | _ _ P _ _ _ _ _ 
3 | N _ _ P _ N _ P 
2 | P P _ _ P P _ _ 
1 | R _ _ Q K B _ R 
-------------------
  | A B C D E F G H 

Turn of: black
Succesful move
c6e5
8 | _ _ R Q K B N R 
7 | P _ P _ P P P P 
6 | _ P _ P _ B _ _ 
5 | _ _ _ _ N _ _ _ 
4 | _ _ P _ _ _ _ _ 
3 | N _ _ P _ N _ P 
2 | P P _ _ P P _ _ 
1 | R _ _ Q K B _ R 
-------------------
  | A B C D E F G H 

Turn of: white
Succesful move
d1d2
8 | _ _ R Q K B N R 
7 | P _ P _ P P P P 
6 | _ P _ P _ B _ _ 
5 | _ _ _ _ N _ _ _ 
4 | _ _ P _ _ _ _ _ 
3 | N _ _ P _ N _ P 
2 | P P _ Q P P _ _ 
1 | R _ _ _ K B _ R 
-------------------
  | A B C D E F G H 

Turn of: black
Succesful move
g8f6
8 | _ _ R Q K B _ R 
7 | P _ P _ P P P P 
6 | _ P _ P _ N _ _ 
5 | _ _ _ _ N _ _ _ 
4 | _ _ P _ _ _ _ _ 
3 | N _ _ P _ N _ P 
2 | P P _ Q P P _ _ 
1 | R _ _ _ K B _ R 
-------------------
  | A B C D E F G H 

We are playing as White
Move history:
d2d3
d7d6
c2c4
b8c6
c1g5
c8d7
g2g4
a8c8
b1a3
d7g4
g5f6
b7b6
h2h3
g4f3
g1f3
c6e5
d1d2
g8f6
8 | _ _ R Q K B _ R 
7 | P _ P _ P P P P 
6 | _ P _ P _ N _ _ 
5 | _ _ _ _ N _ _ _ 
4 | _ _ P _ _ _ _ _ 
3 | N _ _ P _ N _ P 
2 | P P _ Q P P _ _ 
1 | R _ _ _ K B _ R 
-------------------
  | A B C D E F G H 

It is white's turn to play.
AI's move: h3h4
Move written: h3h4
[32;1m[Game] [0mPlayer's error code: 0
[32;1m[Game] [0mChecking move validity...
[32;1m[Board] [0mInitializing board...
[32;1m[Board] [0mLoading history file `championship/lizzie-iii-jykchess/history.csv`...
[32;1m[Board] [0mLoaded 18 move(s).
[32;1m[Board] [0mLoading move file `championship/lizzie-iii-jykchess/move.csv`...
[32;1m[Board] [0mWhite player is playing h3 to h4.
[32;1m[Board] [0m
[32;1m[Board] [0m    a b c d e f g h 
[32;1m[Board] [0m  -------------------
[32;1m[Board] [0m8 ||[7;1m [0m| |[30;1mr[0m|[30;1mQ[0m|[30;1mK[0m|[30;1mb[0m|[7;1m [0m|[30;1mr[0m|| 8
[32;1m[Board] [0m  -------------------
[32;1m[Board] [0m7 ||[30;1mp[0m|[7;1m [0m|[30;1mp[0m|[7;1m [0m|[30;1mp[0m|[30;1mp[0m|[30;1mp[0m|[30;1mp[0m|| 7
[32;1m[Board] [0m  -------------------
[32;1m[Board] [0m6 ||[7;1m [0m|[30;1mp[0m|[7;1m [0m|[30;1mp[0m|[7;1m [0m|[30;1mk[0m|[7;1m [0m| || 6
[32;1m[Board] [0m  -------------------
[32;1m[Board] [0m5 || |[7;1m [0m| |[7;1m [0m|[30;1mk[0m|[7;1m [0m| |[7;1m [0m|| 5
[32;1m[Board] [0m  -------------------
[32;1m[Board] [0m4 ||[7;1m [0m| |[0;1mp[0m| |[7;1m [0m| |[7;1m [0m|[0;1mp[0m|| 4
[32;1m[Board] [0m  -------------------
[32;1m[Board] [0m3 ||[0;1mk[0m|[7;1m [0m| |[0;1mp[0m| |[0;1mk[0m| |[7;1m [0m|| 3
[32;1m[Board] [0m  -------------------
[32;1m[Board] [0m2 ||[0;1mp[0m|[0;1mp[0m|[7;1m [0m|[0;1mQ[0m|[0;1mp[0m|[0;1mp[0m|[7;1m [0m| || 2
[32;1m[Board] [0m  -------------------
[32;1m[Board] [0m1 ||[0;1mr[0m|[7;1m [0m| |[7;1m [0m|[0;1mK[0m|[0;1mb[0m| |[0;1mr[0m|| 1
[32;1m[Board] [0m  -------------------
[32;1m[Board] [0m    a b c d e f g h
[32;1m[Board] [0m
[32;1m[Referee] [0mThis is the turn of the Black player...

Random next move for the current player: e5g4
[32;1m[Game] [0mPlayer's error code: 0
[32;1m[Game] [0mChecking move validity...
[32;1m[Board] [0mInitializing board...
[32;1m[Board] [0mLoading history file `championship/lizzie-iii-jykchess/history.csv`...
[32;1m[Board] [0mLoaded 19 move(s).
[32;1m[Board] [0mLoading move file `championship/lizzie-iii-jykchess/move.csv`...
[32;1m[Board] [0mBlack player is playing e5 to g4.
[32;1m[Board] [0m
[32;1m[Board] [0m    a b c d e f g h 
[32;1m[Board] [0m  -------------------
[32;1m[Board] [0m8 ||[7;1m [0m| |[30;1mr[0m|[30;1mQ[0m|[30;1mK[0m|[30;1mb[0m|[7;1m [0m|[30;1mr[0m|| 8
[32;1m[Board] [0m  -------------------
[32;1m[Board] [0m7 ||[30;1mp[0m|[7;1m [0m|[30;1mp[0m|[7;1m [0m|[30;1mp[0m|[30;1mp[0m|[30;1mp[0m|[30;1mp[0m|| 7
[32;1m[Board] [0m  -------------------
[32;1m[Board] [0m6 ||[7;1m [0m|[30;1mp[0m|[7;1m [0m|[30;1mp[0m|[7;1m [0m|[30;1mk[0m|[7;1m [0m| || 6
[32;1m[Board] [0m  -------------------
[32;1m[Board] [0m5 || |[7;1m [0m| |[7;1m [0m| |[7;1m [0m| |[7;1m [0m|| 5
[32;1m[Board] [0m  -------------------
[32;1m[Board] [0m4 ||[7;1m [0m| |[0;1mp[0m| |[7;1m [0m| |[30;1mk[0m|[0;1mp[0m|| 4
[32;1m[Board] [0m  -------------------
[32;1m[Board] [0m3 ||[0;1mk[0m|[7;1m [0m| |[0;1mp[0m| |[0;1mk[0m| |[7;1m [0m|| 3
[32;1m[Board] [0m  -------------------
[32;1m[Board] [0m2 ||[0;1mp[0m|[0;1mp[0m|[7;1m [0m|[0;1mQ[0m|[0;1mp[0m|[0;1mp[0m|[7;1m [0m| || 2
[32;1m[Board] [0m  -------------------
[32;1m[Board] [0m1 ||[0;1mr[0m|[7;1m [0m| |[7;1m [0m|[0;1mK[0m|[0;1mb[0m| |[0;1mr[0m|| 1
[32;1m[Board] [0m  -------------------
[32;1m[Board] [0m    a b c d e f g h
[32;1m[Board] [0m
[32;1m[Referee] [0mThis is the turn of the White player...
Input file: championship/lizzie-iii-jykchess/history.csv
Output file: championship/lizzie-iii-jykchess/move.csv
Turn of: white
Succesful move
d2d3
8 | R N B Q K B N R 
7 | P P P P P P P P 
6 | _ _ _ _ _ _ _ _ 
5 | _ _ _ _ _ _ _ _ 
4 | _ _ _ _ _ _ _ _ 
3 | _ _ _ P _ _ _ _ 
2 | P P P _ P P P P 
1 | R N B Q K B N R 
-------------------
  | A B C D E F G H 

Turn of: black
Succesful move
d7d6
8 | R N B Q K B N R 
7 | P P P _ P P P P 
6 | _ _ _ P _ _ _ _ 
5 | _ _ _ _ _ _ _ _ 
4 | _ _ _ _ _ _ _ _ 
3 | _ _ _ P _ _ _ _ 
2 | P P P _ P P P P 
1 | R N B Q K B N R 
-------------------
  | A B C D E F G H 

Turn of: white
Succesful move
c2c4
8 | R N B Q K B N R 
7 | P P P _ P P P P 
6 | _ _ _ P _ _ _ _ 
5 | _ _ _ _ _ _ _ _ 
4 | _ _ P _ _ _ _ _ 
3 | _ _ _ P _ _ _ _ 
2 | P P _ _ P P P P 
1 | R N B Q K B N R 
-------------------
  | A B C D E F G H 

Turn of: black
Succesful move
b8c6
8 | R _ B Q K B N R 
7 | P P P _ P P P P 
6 | _ _ N P _ _ _ _ 
5 | _ _ _ _ _ _ _ _ 
4 | _ _ P _ _ _ _ _ 
3 | _ _ _ P _ _ _ _ 
2 | P P _ _ P P P P 
1 | R N B Q K B N R 
-------------------
  | A B C D E F G H 

Turn of: white
Succesful move
c1g5
8 | R _ B Q K B N R 
7 | P P P _ P P P P 
6 | _ _ N P _ _ _ _ 
5 | _ _ _ _ _ _ B _ 
4 | _ _ P _ _ _ _ _ 
3 | _ _ _ P _ _ _ _ 
2 | P P _ _ P P P P 
1 | R N _ Q K B N R 
-------------------
  | A B C D E F G H 

Turn of: black
Succesful move
c8d7
8 | R _ _ Q K B N R 
7 | P P P B P P P P 
6 | _ _ N P _ _ _ _ 
5 | _ _ _ _ _ _ B _ 
4 | _ _ P _ _ _ _ _ 
3 | _ _ _ P _ _ _ _ 
2 | P P _ _ P P P P 
1 | R N _ Q K B N R 
-------------------
  | A B C D E F G H 

Turn of: white
Succesful move
g2g4
8 | R _ _ Q K B N R 
7 | P P P B P P P P 
6 | _ _ N P _ _ _ _ 
5 | _ _ _ _ _ _ B _ 
4 | _ _ P _ _ _ P _ 
3 | _ _ _ P _ _ _ _ 
2 | P P _ _ P P _ P 
1 | R N _ Q K B N R 
-------------------
  | A B C D E F G H 

Turn of: black
Succesful move
a8c8
8 | _ _ R Q K B N R 
7 | P P P B P P P P 
6 | _ _ N P _ _ _ _ 
5 | _ _ _ _ _ _ B _ 
4 | _ _ P _ _ _ P _ 
3 | _ _ _ P _ _ _ _ 
2 | P P _ _ P P _ P 
1 | R N _ Q K B N R 
-------------------
  | A B C D E F G H 

Turn of: white
Succesful move
b1a3
8 | _ _ R Q K B N R 
7 | P P P B P P P P 
6 | _ _ N P _ _ _ _ 
5 | _ _ _ _ _ _ B _ 
4 | _ _ P _ _ _ P _ 
3 | N _ _ P _ _ _ _ 
2 | P P _ _ P P _ P 
1 | R _ _ Q K B N R 
-------------------
  | A B C D E F G H 

Turn of: black
Succesful move
d7g4
8 | _ _ R Q K B N R 
7 | P P P _ P P P P 
6 | _ _ N P _ _ _ _ 
5 | _ _ _ _ _ _ B _ 
4 | _ _ P _ _ _ B _ 
3 | N _ _ P _ _ _ _ 
2 | P P _ _ P P _ P 
1 | R _ _ Q K B N R 
-------------------
  | A B C D E F G H 

Turn of: white
Succesful move
g5f6
8 | _ _ R Q K B N R 
7 | P P P _ P P P P 
6 | _ _ N P _ B _ _ 
5 | _ _ _ _ _ _ _ _ 
4 | _ _ P _ _ _ B _ 
3 | N _ _ P _ _ _ _ 
2 | P P _ _ P P _ P 
1 | R _ _ Q K B N R 
-------------------
  | A B C D E F G H 

Turn of: black
Succesful move
b7b6
8 | _ _ R Q K B N R 
7 | P _ P _ P P P P 
6 | _ P N P _ B _ _ 
5 | _ _ _ _ _ _ _ _ 
4 | _ _ P _ _ _ B _ 
3 | N _ _ P _ _ _ _ 
2 | P P _ _ P P _ P 
1 | R _ _ Q K B N R 
-------------------
  | A B C D E F G H 

Turn of: white
Succesful move
h2h3
8 | _ _ R Q K B N R 
7 | P _ P _ P P P P 
6 | _ P N P _ B _ _ 
5 | _ _ _ _ _ _ _ _ 
4 | _ _ P _ _ _ B _ 
3 | N _ _ P _ _ _ P 
2 | P P _ _ P P _ _ 
1 | R _ _ Q K B N R 
-------------------
  | A B C D E F G H 

Turn of: black
Succesful move
g4f3
8 | _ _ R Q K B N R 
7 | P _ P _ P P P P 
6 | _ P N P _ B _ _ 
5 | _ _ _ _ _ _ _ _ 
4 | _ _ P _ _ _ _ _ 
3 | N _ _ P _ B _ P 
2 | P P _ _ P P _ _ 
1 | R _ _ Q K B N R 
-------------------
  | A B C D E F G H 

Turn of: white
Succesful move
g1f3
8 | _ _ R Q K B N R 
7 | P _ P _ P P P P 
6 | _ P N P _ B _ _ 
5 | _ _ _ _ _ _ _ _ 
4 | _ _ P _ _ _ _ _ 
3 | N _ _ P _ N _ P 
2 | P P _ _ P P _ _ 
1 | R _ _ Q K B _ R 
-------------------
  | A B C D E F G H 

Turn of: black
Succesful move
c6e5
8 | _ _ R Q K B N R 
7 | P _ P _ P P P P 
6 | _ P _ P _ B _ _ 
5 | _ _ _ _ N _ _ _ 
4 | _ _ P _ _ _ _ _ 
3 | N _ _ P _ N _ P 
2 | P P _ _ P P _ _ 
1 | R _ _ Q K B _ R 
-------------------
  | A B C D E F G H 

Turn of: white
Succesful move
d1d2
8 | _ _ R Q K B N R 
7 | P _ P _ P P P P 
6 | _ P _ P _ B _ _ 
5 | _ _ _ _ N _ _ _ 
4 | _ _ P _ _ _ _ _ 
3 | N _ _ P _ N _ P 
2 | P P _ Q P P _ _ 
1 | R _ _ _ K B _ R 
-------------------
  | A B C D E F G H 

Turn of: black
Succesful move
g8f6
8 | _ _ R Q K B _ R 
7 | P _ P _ P P P P 
6 | _ P _ P _ N _ _ 
5 | _ _ _ _ N _ _ _ 
4 | _ _ P _ _ _ _ _ 
3 | N _ _ P _ N _ P 
2 | P P _ Q P P _ _ 
1 | R _ _ _ K B _ R 
-------------------
  | A B C D E F G H 

Turn of: white
Succesful move
h3h4
8 | _ _ R Q K B _ R 
7 | P _ P _ P P P P 
6 | _ P _ P _ N _ _ 
5 | _ _ _ _ N _ _ _ 
4 | _ _ P _ _ _ _ P 
3 | N _ _ P _ N _ _ 
2 | P P _ Q P P _ _ 
1 | R _ _ _ K B _ R 
-------------------
  | A B C D E F G H 

Turn of: black
Succesful move
e5g4
8 | _ _ R Q K B _ R 
7 | P _ P _ P P P P 
6 | _ P _ P _ N _ _ 
5 | _ _ _ _ _ _ _ _ 
4 | _ _ P _ _ _ N P 
3 | N _ _ P _ N _ _ 
2 | P P _ Q P P _ _ 
1 | R _ _ _ K B _ R 
-------------------
  | A B C D E F G H 

We are playing as White
Move history:
d2d3
d7d6
c2c4
b8c6
c1g5
c8d7
g2g4
a8c8
b1a3
d7g4
g5f6
b7b6
h2h3
g4f3
g1f3
c6e5
d1d2
g8f6
h3h4
e5g4
8 | _ _ R Q K B _ R 
7 | P _ P _ P P P P 
6 | _ P _ P _ N _ _ 
5 | _ _ _ _ _ _ _ _ 
4 | _ _ P _ _ _ N P 
3 | N _ _ P _ N _ _ 
2 | P P _ Q P P _ _ 
1 | R _ _ _ K B _ R 
-------------------
  | A B C D E F G H 

It is white's turn to play.
AI's move: b2b3
Move written: b2b3
[32;1m[Game] [0mPlayer's error code: 0
[32;1m[Game] [0mChecking move validity...
[32;1m[Board] [0mInitializing board...
[32;1m[Board] [0mLoading history file `championship/lizzie-iii-jykchess/history.csv`...
[32;1m[Board] [0mLoaded 20 move(s).
[32;1m[Board] [0mLoading move file `championship/lizzie-iii-jykchess/move.csv`...
[32;1m[Board] [0mWhite player is playing b2 to b3.
[32;1m[Board] [0m
[32;1m[Board] [0m    a b c d e f g h 
[32;1m[Board] [0m  -------------------
[32;1m[Board] [0m8 ||[7;1m [0m| |[30;1mr[0m|[30;1mQ[0m|[30;1mK[0m|[30;1mb[0m|[7;1m [0m|[30;1mr[0m|| 8
[32;1m[Board] [0m  -------------------
[32;1m[Board] [0m7 ||[30;1mp[0m|[7;1m [0m|[30;1mp[0m|[7;1m [0m|[30;1mp[0m|[30;1mp[0m|[30;1mp[0m|[30;1mp[0m|| 7
[32;1m[Board] [0m  -------------------
[32;1m[Board] [0m6 ||[7;1m [0m|[30;1mp[0m|[7;1m [0m|[30;1mp[0m|[7;1m [0m|[30;1mk[0m|[7;1m [0m| || 6
[32;1m[Board] [0m  -------------------
[32;1m[Board] [0m5 || |[7;1m [0m| |[7;1m [0m| |[7;1m [0m| |[7;1m [0m|| 5
[32;1m[Board] [0m  -------------------
[32;1m[Board] [0m4 ||[7;1m [0m| |[0;1mp[0m| |[7;1m [0m| |[30;1mk[0m|[0;1mp[0m|| 4
[32;1m[Board] [0m  -------------------
[32;1m[Board] [0m3 ||[0;1mk[0m|[0;1mp[0m| |[0;1mp[0m| |[0;1mk[0m| |[7;1m [0m|| 3
[32;1m[Board] [0m  -------------------
[32;1m[Board] [0m2 ||[0;1mp[0m| |[7;1m [0m|[0;1mQ[0m|[0;1mp[0m|[0;1mp[0m|[7;1m [0m| || 2
[32;1m[Board] [0m  -------------------
[32;1m[Board] [0m1 ||[0;1mr[0m|[7;1m [0m| |[7;1m [0m|[0;1mK[0m|[0;1mb[0m| |[0;1mr[0m|| 1
[32;1m[Board] [0m  -------------------
[32;1m[Board] [0m    a b c d e f g h
[32;1m[Board] [0m
[32;1m[Referee] [0mThis is the turn of the Black player...

Random next move for the current player: c8a8
[32;1m[Game] [0mPlayer's error code: 0
[32;1m[Game] [0mChecking move validity...
[32;1m[Board] [0mInitializing board...
[32;1m[Board] [0mLoading history file `championship/lizzie-iii-jykchess/history.csv`...
[32;1m[Board] [0mLoaded 21 move(s).
[32;1m[Board] [0mLoading move file `championship/lizzie-iii-jykchess/move.csv`...
[32;1m[Board] [0mBlack player is playing c8 to a8.
[32;1m[Board] [0m
[32;1m[Board] [0m    a b c d e f g h 
[32;1m[Board] [0m  -------------------
[32;1m[Board] [0m8 ||[30;1mr[0m| |[7;1m [0m|[30;1mQ[0m|[30;1mK[0m|[30;1mb[0m|[7;1m [0m|[30;1mr[0m|| 8
[32;1m[Board] [0m  -------------------
[32;1m[Board] [0m7 ||[30;1mp[0m|[7;1m [0m|[30;1mp[0m|[7;1m [0m|[30;1mp[0m|[30;1mp[0m|[30;1mp[0m|[30;1mp[0m|| 7
[32;1m[Board] [0m  -------------------
[32;1m[Board] [0m6 ||[7;1m [0m|[30;1mp[0m|[7;1m [0m|[30;1mp[0m|[7;1m [0m|[30;1mk[0m|[7;1m [0m| || 6
[32;1m[Board] [0m  -------------------
[32;1m[Board] [0m5 || |[7;1m [0m| |[7;1m [0m| |[7;1m [0m| |[7;1m [0m|| 5
[32;1m[Board] [0m  -------------------
[32;1m[Board] [0m4 ||[7;1m [0m| |[0;1mp[0m| |[7;1m [0m| |[30;1mk[0m|[0;1mp[0m|| 4
[32;1m[Board] [0m  -------------------
[32;1m[Board] [0m3 ||[0;1mk[0m|[0;1mp[0m| |[0;1mp[0m| |[0;1mk[0m| |[7;1m [0m|| 3
[32;1m[Board] [0m  -------------------
[32;1m[Board] [0m2 ||[0;1mp[0m| |[7;1m [0m|[0;1mQ[0m|[0;1mp[0m|[0;1mp[0m|[7;1m [0m| || 2
[32;1m[Board] [0m  -------------------
[32;1m[Board] [0m1 ||[0;1mr[0m|[7;1m [0m| |[7;1m [0m|[0;1mK[0m|[0;1mb[0m| |[0;1mr[0m|| 1
[32;1m[Board] [0m  -------------------
[32;1m[Board] [0m    a b c d e f g h
[32;1m[Board] [0m
[32;1m[Referee] [0mThis is the turn of the White player...
Input file: championship/lizzie-iii-jykchess/history.csv
Output file: championship/lizzie-iii-jykchess/move.csv
Turn of: white
Succesful move
d2d3
8 | R N B Q K B N R 
7 | P P P P P P P P 
6 | _ _ _ _ _ _ _ _ 
5 | _ _ _ _ _ _ _ _ 
4 | _ _ _ _ _ _ _ _ 
3 | _ _ _ P _ _ _ _ 
2 | P P P _ P P P P 
1 | R N B Q K B N R 
-------------------
  | A B C D E F G H 

Turn of: black
Succesful move
d7d6
8 | R N B Q K B N R 
7 | P P P _ P P P P 
6 | _ _ _ P _ _ _ _ 
5 | _ _ _ _ _ _ _ _ 
4 | _ _ _ _ _ _ _ _ 
3 | _ _ _ P _ _ _ _ 
2 | P P P _ P P P P 
1 | R N B Q K B N R 
-------------------
  | A B C D E F G H 

Turn of: white
Succesful move
c2c4
8 | R N B Q K B N R 
7 | P P P _ P P P P 
6 | _ _ _ P _ _ _ _ 
5 | _ _ _ _ _ _ _ _ 
4 | _ _ P _ _ _ _ _ 
3 | _ _ _ P _ _ _ _ 
2 | P P _ _ P P P P 
1 | R N B Q K B N R 
-------------------
  | A B C D E F G H 

Turn of: black
Succesful move
b8c6
8 | R _ B Q K B N R 
7 | P P P _ P P P P 
6 | _ _ N P _ _ _ _ 
5 | _ _ _ _ _ _ _ _ 
4 | _ _ P _ _ _ _ _ 
3 | _ _ _ P _ _ _ _ 
2 | P P _ _ P P P P 
1 | R N B Q K B N R 
-------------------
  | A B C D E F G H 

Turn of: white
Succesful move
c1g5
8 | R _ B Q K B N R 
7 | P P P _ P P P P 
6 | _ _ N P _ _ _ _ 
5 | _ _ _ _ _ _ B _ 
4 | _ _ P _ _ _ _ _ 
3 | _ _ _ P _ _ _ _ 
2 | P P _ _ P P P P 
1 | R N _ Q K B N R 
-------------------
  | A B C D E F G H 

Turn of: black
Succesful move
c8d7
8 | R _ _ Q K B N R 
7 | P P P B P P P P 
6 | _ _ N P _ _ _ _ 
5 | _ _ _ _ _ _ B _ 
4 | _ _ P _ _ _ _ _ 
3 | _ _ _ P _ _ _ _ 
2 | P P _ _ P P P P 
1 | R N _ Q K B N R 
-------------------
  | A B C D E F G H 

Turn of: white
Succesful move
g2g4
8 | R _ _ Q K B N R 
7 | P P P B P P P P 
6 | _ _ N P _ _ _ _ 
5 | _ _ _ _ _ _ B _ 
4 | _ _ P _ _ _ P _ 
3 | _ _ _ P _ _ _ _ 
2 | P P _ _ P P _ P 
1 | R N _ Q K B N R 
-------------------
  | A B C D E F G H 

Turn of: black
Succesful move
a8c8
8 | _ _ R Q K B N R 
7 | P P P B P P P P 
6 | _ _ N P _ _ _ _ 
5 | _ _ _ _ _ _ B _ 
4 | _ _ P _ _ _ P _ 
3 | _ _ _ P _ _ _ _ 
2 | P P _ _ P P _ P 
1 | R N _ Q K B N R 
-------------------
  | A B C D E F G H 

Turn of: white
Succesful move
b1a3
8 | _ _ R Q K B N R 
7 | P P P B P P P P 
6 | _ _ N P _ _ _ _ 
5 | _ _ _ _ _ _ B _ 
4 | _ _ P _ _ _ P _ 
3 | N _ _ P _ _ _ _ 
2 | P P _ _ P P _ P 
1 | R _ _ Q K B N R 
-------------------
  | A B C D E F G H 

Turn of: black
Succesful move
d7g4
8 | _ _ R Q K B N R 
7 | P P P _ P P P P 
6 | _ _ N P _ _ _ _ 
5 | _ _ _ _ _ _ B _ 
4 | _ _ P _ _ _ B _ 
3 | N _ _ P _ _ _ _ 
2 | P P _ _ P P _ P 
1 | R _ _ Q K B N R 
-------------------
  | A B C D E F G H 

Turn of: white
Succesful move
g5f6
8 | _ _ R Q K B N R 
7 | P P P _ P P P P 
6 | _ _ N P _ B _ _ 
5 | _ _ _ _ _ _ _ _ 
4 | _ _ P _ _ _ B _ 
3 | N _ _ P _ _ _ _ 
2 | P P _ _ P P _ P 
1 | R _ _ Q K B N R 
-------------------
  | A B C D E F G H 

Turn of: black
Succesful move
b7b6
8 | _ _ R Q K B N R 
7 | P _ P _ P P P P 
6 | _ P N P _ B _ _ 
5 | _ _ _ _ _ _ _ _ 
4 | _ _ P _ _ _ B _ 
3 | N _ _ P _ _ _ _ 
2 | P P _ _ P P _ P 
1 | R _ _ Q K B N R 
-------------------
  | A B C D E F G H 

Turn of: white
Succesful move
h2h3
8 | _ _ R Q K B N R 
7 | P _ P _ P P P P 
6 | _ P N P _ B _ _ 
5 | _ _ _ _ _ _ _ _ 
4 | _ _ P _ _ _ B _ 
3 | N _ _ P _ _ _ P 
2 | P P _ _ P P _ _ 
1 | R _ _ Q K B N R 
-------------------
  | A B C D E F G H 

Turn of: black
Succesful move
g4f3
8 | _ _ R Q K B N R 
7 | P _ P _ P P P P 
6 | _ P N P _ B _ _ 
5 | _ _ _ _ _ _ _ _ 
4 | _ _ P _ _ _ _ _ 
3 | N _ _ P _ B _ P 
2 | P P _ _ P P _ _ 
1 | R _ _ Q K B N R 
-------------------
  | A B C D E F G H 

Turn of: white
Succesful move
g1f3
8 | _ _ R Q K B N R 
7 | P _ P _ P P P P 
6 | _ P N P _ B _ _ 
5 | _ _ _ _ _ _ _ _ 
4 | _ _ P _ _ _ _ _ 
3 | N _ _ P _ N _ P 
2 | P P _ _ P P _ _ 
1 | R _ _ Q K B _ R 
-------------------
  | A B C D E F G H 

Turn of: black
Succesful move
c6e5
8 | _ _ R Q K B N R 
7 | P _ P _ P P P P 
6 | _ P _ P _ B _ _ 
5 | _ _ _ _ N _ _ _ 
4 | _ _ P _ _ _ _ _ 
3 | N _ _ P _ N _ P 
2 | P P _ _ P P _ _ 
1 | R _ _ Q K B _ R 
-------------------
  | A B C D E F G H 

Turn of: white
Succesful move
d1d2
8 | _ _ R Q K B N R 
7 | P _ P _ P P P P 
6 | _ P _ P _ B _ _ 
5 | _ _ _ _ N _ _ _ 
4 | _ _ P _ _ _ _ _ 
3 | N _ _ P _ N _ P 
2 | P P _ Q P P _ _ 
1 | R _ _ _ K B _ R 
-------------------
  | A B C D E F G H 

Turn of: black
Succesful move
g8f6
8 | _ _ R Q K B _ R 
7 | P _ P _ P P P P 
6 | _ P _ P _ N _ _ 
5 | _ _ _ _ N _ _ _ 
4 | _ _ P _ _ _ _ _ 
3 | N _ _ P _ N _ P 
2 | P P _ Q P P _ _ 
1 | R _ _ _ K B _ R 
-------------------
  | A B C D E F G H 

Turn of: white
Succesful move
h3h4
8 | _ _ R Q K B _ R 
7 | P _ P _ P P P P 
6 | _ P _ P _ N _ _ 
5 | _ _ _ _ N _ _ _ 
4 | _ _ P _ _ _ _ P 
3 | N _ _ P _ N _ _ 
2 | P P _ Q P P _ _ 
1 | R _ _ _ K B _ R 
-------------------
  | A B C D E F G H 

Turn of: black
Succesful move
e5g4
8 | _ _ R Q K B _ R 
7 | P _ P _ P P P P 
6 | _ P _ P _ N _ _ 
5 | _ _ _ _ _ _ _ _ 
4 | _ _ P _ _ _ N P 
3 | N _ _ P _ N _ _ 
2 | P P _ Q P P _ _ 
1 | R _ _ _ K B _ R 
-------------------
  | A B C D E F G H 

Turn of: white
Succesful move
b2b3
8 | _ _ R Q K B _ R 
7 | P _ P _ P P P P 
6 | _ P _ P _ N _ _ 
5 | _ _ _ _ _ _ _ _ 
4 | _ _ P _ _ _ N P 
3 | N P _ P _ N _ _ 
2 | P _ _ Q P P _ _ 
1 | R _ _ _ K B _ R 
-------------------
  | A B C D E F G H 

Turn of: black
Succesful move
c8a8
8 | R _ _ Q K B _ R 
7 | P _ P _ P P P P 
6 | _ P _ P _ N _ _ 
5 | _ _ _ _ _ _ _ _ 
4 | _ _ P _ _ _ N P 
3 | N P _ P _ N _ _ 
2 | P _ _ Q P P _ _ 
1 | R _ _ _ K B _ R 
-------------------
  | A B C D E F G H 

We are playing as White
Move history:
d2d3
d7d6
c2c4
b8c6
c1g5
c8d7
g2g4
a8c8
b1a3
d7g4
g5f6
b7b6
h2h3
g4f3
g1f3
c6e5
d1d2
g8f6
h3h4
e5g4
b2b3
c8a8
8 | R _ _ Q K B _ R 
7 | P _ P _ P P P P 
6 | _ P _ P _ N _ _ 
5 | _ _ _ _ _ _ _ _ 
4 | _ _ P _ _ _ N P 
3 | N P _ P _ N _ _ 
2 | P _ _ Q P P _ _ 
1 | R _ _ _ K B _ R 
-------------------
  | A B C D E F G H 

It is white's turn to play.
AI's move: f1g2
Move written: f1g2
[32;1m[Game] [0mPlayer's error code: 0
[32;1m[Game] [0mChecking move validity...
[32;1m[Board] [0mInitializing board...
[32;1m[Board] [0mLoading history file `championship/lizzie-iii-jykchess/history.csv`...
[32;1m[Board] [0mLoaded 22 move(s).
[32;1m[Board] [0mLoading move file `championship/lizzie-iii-jykchess/move.csv`...
[32;1m[Board] [0mWhite player is playing f1 to g2.
[32;1m[Board] [0m
[32;1m[Board] [0m    a b c d e f g h 
[32;1m[Board] [0m  -------------------
[32;1m[Board] [0m8 ||[30;1mr[0m| |[7;1m [0m|[30;1mQ[0m|[30;1mK[0m|[30;1mb[0m|[7;1m [0m|[30;1mr[0m|| 8
[...]
4 | _ _ P _ _ _ _ P 
3 | N P _ P N N _ _ 
2 | P _ _ Q P P B _ 
1 | R _ _ _ K _ _ R 
-------------------
  | A B C D E F G H 

Turn of: white
Succesful move
d2d1
8 | R _ _ Q K B _ R 
7 | P _ P _ P P P P 
6 | _ P _ P _ N _ _ 
5 | _ _ _ _ _ _ _ _ 
4 | _ _ P _ _ _ _ P 
3 | N P _ P N N _ _ 
2 | P _ _ _ P P B _ 
1 | R _ _ Q K _ _ R 
-------------------
  | A B C D E F G H 

Turn of: black
Succesful move
h7h5
8 | R _ _ Q K B _ R 
7 | P _ P _ P P P _ 
6 | _ P _ P _ N _ _ 
5 | _ _ _ _ _ _ _ P 
4 | _ _ P _ _ _ _ P 
3 | N P _ P N N _ _ 
2 | P _ _ _ P P B _ 
1 | R _ _ Q K _ _ R 
-------------------
  | A B C D E F G H 

Turn of: white
Succesful move
e1d2
8 | R _ _ Q K B _ R 
7 | P _ P _ P P P _ 
6 | _ P _ P _ N _ _ 
5 | _ _ _ _ _ _ _ P 
4 | _ _ P _ _ _ _ P 
3 | N P _ P N N _ _ 
2 | P _ _ K P P B _ 
1 | R _ _ Q _ _ _ R 
-------------------
  | A B C D E F G H 

Turn of: black
Succesful move
g7g5
8 | R _ _ Q K B _ R 
7 | P _ P _ P P _ _ 
6 | _ P _ P _ N _ _ 
5 | _ _ _ _ _ _ P P 
4 | _ _ P _ _ _ _ P 
3 | N P _ P N N _ _ 
2 | P _ _ K P P B _ 
1 | R _ _ Q _ _ _ R 
-------------------
  | A B C D E F G H 

Turn of: white
Succesful move
d1f1
8 | R _ _ Q K B _ R 
7 | P _ P _ P P _ _ 
6 | _ P _ P _ N _ _ 
5 | _ _ _ _ _ _ P P 
4 | _ _ P _ _ _ _ P 
3 | N P _ P N N _ _ 
2 | P _ _ K P P B _ 
1 | R _ _ _ _ Q _ R 
-------------------
  | A B C D E F G H 

Turn of: black
Succesful move
f6g4
8 | R _ _ Q K B _ R 
7 | P _ P _ P P _ _ 
6 | _ P _ P _ _ _ _ 
5 | _ _ _ _ _ _ P P 
4 | _ _ P _ _ _ N P 
3 | N P _ P N N _ _ 
2 | P _ _ K P P B _ 
1 | R _ _ _ _ Q _ R 
-------------------
  | A B C D E F G H 

Turn of: white
Succesful move
d3d4
8 | R _ _ Q K B _ R 
7 | P _ P _ P P _ _ 
6 | _ P _ P _ _ _ _ 
5 | _ _ _ _ _ _ P P 
4 | _ _ P P _ _ N P 
3 | N P _ _ N N _ _ 
2 | P _ _ K P P B _ 
1 | R _ _ _ _ Q _ R 
-------------------
  | A B C D E F G H 

Turn of: black
Succesful move
g5h4
8 | R _ _ Q K B _ R 
7 | P _ P _ P P _ _ 
6 | _ P _ P _ _ _ _ 
5 | _ _ _ _ _ _ _ P 
4 | _ _ P P _ _ N P 
3 | N P _ _ N N _ _ 
2 | P _ _ K P P B _ 
1 | R _ _ _ _ Q _ R 
-------------------
  | A B C D E F G H 

Turn of: white
Succesful move
d2d3
8 | R _ _ Q K B _ R 
7 | P _ P _ P P _ _ 
6 | _ P _ P _ _ _ _ 
5 | _ _ _ _ _ _ _ P 
4 | _ _ P P _ _ N P 
3 | N P _ K N N _ _ 
2 | P _ _ _ P P B _ 
1 | R _ _ _ _ Q _ R 
-------------------
  | A B C D E F G H 

Turn of: black
Succesful move
g4f6
8 | R _ _ Q K B _ R 
7 | P _ P _ P P _ _ 
6 | _ P _ P _ N _ _ 
5 | _ _ _ _ _ _ _ P 
4 | _ _ P P _ _ _ P 
3 | N P _ K N N _ _ 
2 | P _ _ _ P P B _ 
1 | R _ _ _ _ Q _ R 
-------------------
  | A B C D E F G H 

Turn of: white
Succesful move
f3g1
8 | R _ _ Q K B _ R 
7 | P _ P _ P P _ _ 
6 | _ P _ P _ N _ _ 
5 | _ _ _ _ _ _ _ P 
4 | _ _ P P _ _ _ P 
3 | N P _ K N _ _ _ 
2 | P _ _ _ P P B _ 
1 | R _ _ _ _ Q N R 
-------------------
  | A B C D E F G H 

Turn of: black
Succesful move
f6h7
8 | R _ _ Q K B _ R 
7 | P _ P _ P P _ N 
6 | _ P _ P _ _ _ _ 
5 | _ _ _ _ _ _ _ P 
4 | _ _ P P _ _ _ P 
3 | N P _ K N _ _ _ 
2 | P _ _ _ P P B _ 
1 | R _ _ _ _ Q N R 
-------------------
  | A B C D E F G H 

Turn of: white
Succesful move
d4d5
8 | R _ _ Q K B _ R 
7 | P _ P _ P P _ N 
6 | _ P _ P _ _ _ _ 
5 | _ _ _ P _ _ _ P 
4 | _ _ P _ _ _ _ P 
3 | N P _ K N _ _ _ 
2 | P _ _ _ P P B _ 
1 | R _ _ _ _ Q N R 
-------------------
  | A B C D E F G H 

Turn of: black
Succesful move
f8h6
8 | R _ _ Q K _ _ R 
7 | P _ P _ P P _ N 
6 | _ P _ P _ _ _ B 
5 | _ _ _ P _ _ _ P 
4 | _ _ P _ _ _ _ P 
3 | N P _ K N _ _ _ 
2 | P _ _ _ P P B _ 
1 | R _ _ _ _ Q N R 
-------------------
  | A B C D E F G H 

Turn of: white
Succesful move
a3b1
8 | R _ _ Q K _ _ R 
7 | P _ P _ P P _ N 
6 | _ P _ P _ _ _ B 
5 | _ _ _ P _ _ _ P 
4 | _ _ P _ _ _ _ P 
3 | _ P _ K N _ _ _ 
2 | P _ _ _ P P B _ 
1 | R N _ _ _ Q N R 
-------------------
  | A B C D E F G H 

Turn of: black
Succesful move
h6g7
8 | R _ _ Q K _ _ R 
7 | P _ P _ P P B N 
6 | _ P _ P _ _ _ _ 
5 | _ _ _ P _ _ _ P 
4 | _ _ P _ _ _ _ P 
3 | _ P _ K N _ _ _ 
2 | P _ _ _ P P B _ 
1 | R N _ _ _ Q N R 
-------------------
  | A B C D E F G H 

Turn of: white
Succesful move
f2f4
8 | R _ _ Q K _ _ R 
7 | P _ P _ P P B N 
6 | _ P _ P _ _ _ _ 
5 | _ _ _ P _ _ _ P 
4 | _ _ P _ _ P _ P 
3 | _ P _ K N _ _ _ 
2 | P _ _ _ P _ B _ 
1 | R N _ _ _ Q N R 
-------------------
  | A B C D E F G H 

Turn of: black
Succesful move
c7c6
8 | R _ _ Q K _ _ R 
7 | P _ _ _ P P B N 
6 | _ P P P _ _ _ _ 
5 | _ _ _ P _ _ _ P 
4 | _ _ P _ _ P _ P 
3 | _ P _ K N _ _ _ 
2 | P _ _ _ P _ B _ 
1 | R N _ _ _ Q N R 
-------------------
  | A B C D E F G H 

Turn of: white
Succesful move
d5c6
8 | R _ _ Q K _ _ R 
7 | P _ _ _ P P B N 
6 | _ P P P _ _ _ _ 
5 | _ _ _ _ _ _ _ P 
4 | _ _ P _ _ P _ P 
3 | _ P _ K N _ _ _ 
2 | P _ _ _ P _ B _ 
1 | R N _ _ _ Q N R 
-------------------
  | A B C D E F G H 

Turn of: black
Succesful move
f7f6
8 | R _ _ Q K _ _ R 
7 | P _ _ _ P _ B N 
6 | _ P P P _ P _ _ 
5 | _ _ _ _ _ _ _ P 
4 | _ _ P _ _ P _ P 
3 | _ P _ K N _ _ _ 
2 | P _ _ _ P _ B _ 
1 | R N _ _ _ Q N R 
-------------------
  | A B C D E F G H 

Turn of: white
Succesful move
f4f5
8 | R _ _ Q K _ _ R 
7 | P _ _ _ P _ B N 
6 | _ P P P _ P _ _ 
5 | _ _ _ _ _ P _ P 
4 | _ _ P _ _ _ _ P 
3 | _ P _ K N _ _ _ 
2 | P _ _ _ P _ B _ 
1 | R N _ _ _ Q N R 
-------------------
  | A B C D E F G H 

Turn of: black
Succesful move
e8f7
8 | R _ _ Q _ _ _ R 
7 | P _ _ _ P K B N 
6 | _ P P P _ P _ _ 
5 | _ _ _ _ _ P _ P 
4 | _ _ P _ _ _ _ P 
3 | _ P _ K N _ _ _ 
2 | P _ _ _ P _ B _ 
1 | R N _ _ _ Q N R 
-------------------
  | A B C D E F G H 

Turn of: white
Succesful move
g2e4
8 | R _ _ Q _ _ _ R 
7 | P _ _ _ P K B N 
6 | _ P P P _ P _ _ 
5 | _ _ _ _ _ P _ P 
4 | _ _ P _ B _ _ P 
3 | _ P _ K N _ _ _ 
2 | P _ _ _ P _ _ _ 
1 | R N _ _ _ Q N R 
-------------------
  | A B C D E F G H 

Turn of: black
Succesful move
h7f8
8 | R _ _ Q _ N _ R 
7 | P _ _ _ P K B _ 
6 | _ P P P _ P _ _ 
5 | _ _ _ _ _ P _ P 
4 | _ _ P _ B _ _ P 
3 | _ P _ K N _ _ _ 
2 | P _ _ _ P _ _ _ 
1 | R N _ _ _ Q N R 
-------------------
  | A B C D E F G H 

Turn of: white
Succesful move
d3c3
8 | R _ _ Q _ N _ R 
7 | P _ _ _ P K B _ 
6 | _ P P P _ P _ _ 
5 | _ _ _ _ _ P _ P 
4 | _ _ P _ B _ _ P 
3 | _ P K _ N _ _ _ 
2 | P _ _ _ P _ _ _ 
1 | R N _ _ _ Q N R 
-------------------
  | A B C D E F G H 

Turn of: black
Succesful move
e3g2
8 | R _ _ Q _ N _ R 
7 | P _ _ _ P K B _ 
6 | _ P P P _ P _ _ 
5 | _ _ _ _ _ P _ P 
4 | _ _ P _ B _ _ P 
3 | _ P K _ _ _ _ _ 
2 | P _ _ _ P _ N _ 
1 | R N _ _ _ Q N R 
-------------------
  | A B C D E F G H 

Turn of: white
Succesful move
c3b2
8 | R _ _ Q _ N _ R 
7 | P _ _ _ P K B _ 
6 | _ P P P _ P _ _ 
5 | _ _ _ _ _ P _ P 
4 | _ _ P _ B _ _ P 
3 | _ P _ _ _ _ _ _ 
2 | P K _ _ P _ N _ 
1 | R N _ _ _ Q N R 
-------------------
  | A B C D E F G H 

Turn of: black
Succesful move
g2f4
8 | R _ _ Q _ N _ R 
7 | P _ _ _ P K B _ 
6 | _ P P P _ P _ _ 
5 | _ _ _ _ _ P _ P 
4 | _ _ P _ B N _ P 
3 | _ P _ _ _ _ _ _ 
2 | P K _ _ P _ _ _ 
1 | R N _ _ _ Q N R 
-------------------
  | A B C D E F G H 

Turn of: white
Succesful move
b1a3
8 | R _ _ Q _ N _ R 
7 | P _ _ _ P K B _ 
6 | _ P P P _ P _ _ 
5 | _ _ _ _ _ P _ P 
4 | _ _ P _ B N _ P 
3 | N P _ _ _ _ _ _ 
2 | P K _ _ P _ _ _ 
1 | R _ _ _ _ Q N R 
-------------------
  | A B C D E F G H 

Turn of: black
Succesful move
h8g8
8 | R _ _ Q _ N R _ 
7 | P _ _ _ P K B _ 
6 | _ P P P _ P _ _ 
5 | _ _ _ _ _ P _ P 
4 | _ _ P _ B N _ P 
3 | N P _ _ _ _ _ _ 
2 | P K _ _ P _ _ _ 
1 | R _ _ _ _ Q N R 
-------------------
  | A B C D E F G H 

Turn of: white
Succesful move
g1h3
8 | R _ _ Q _ N R _ 
7 | P _ _ _ P K B _ 
6 | _ P P P _ P _ _ 
5 | _ _ _ _ _ P _ P 
4 | _ _ P _ B N _ P 
3 | N P _ _ _ _ _ N 
2 | P K _ _ P _ _ _ 
1 | R _ _ _ _ Q _ R 
-------------------
  | A B C D E F G H 

Turn of: black
Succesful move
f4h3
8 | R _ _ Q _ N R _ 
7 | P _ _ _ P K B _ 
6 | _ P P P _ P _ _ 
5 | _ _ _ _ _ P _ P 
4 | _ _ P _ B _ _ P 
3 | N P _ _ _ _ _ N 
2 | P K _ _ P _ _ _ 
1 | R _ _ _ _ Q _ R 
-------------------
  | A B C D E F G H 

Turn of: white
Succesful move
a1e1
8 | R _ _ Q _ N R _ 
7 | P _ _ _ P K B _ 
6 | _ P P P _ P _ _ 
5 | _ _ _ _ _ P _ P 
4 | _ _ P _ B _ _ P 
3 | N P _ _ _ _ _ N 
2 | P K _ _ P _ _ _ 
1 | _ _ _ _ R Q _ R 
-------------------
  | A B C D E F G H 

Turn of: black
Succesful move
h3g5
8 | R _ _ Q _ N R _ 
7 | P _ _ _ P K B _ 
6 | _ P P P _ P _ _ 
5 | _ _ _ _ _ P N P 
4 | _ _ P _ B _ _ P 
3 | N P _ _ _ _ _ _ 
2 | P K _ _ P _ _ _ 
1 | _ _ _ _ R Q _ R 
-------------------
  | A B C D E F G H 

Turn of: white
Succesful move
b2b1
8 | R _ _ Q _ N R _ 
7 | P _ _ _ P K B _ 
6 | _ P P P _ P _ _ 
5 | _ _ _ _ _ P N P 
4 | _ _ P _ B _ _ P 
3 | N P _ _ _ _ _ _ 
2 | P _ _ _ P _ _ _ 
1 | _ K _ _ R Q _ R 
-------------------
  | A B C D E F G H 

Turn of: black
Succesful move
g5h3
8 | R _ _ Q _ N R _ 
7 | P _ _ _ P K B _ 
6 | _ P P P _ P _ _ 
5 | _ _ _ _ _ P _ P 
4 | _ _ P _ B _ _ P 
3 | N P _ _ _ _ _ N 
2 | P _ _ _ P _ _ _ 
1 | _ K _ _ R Q _ R 
-------------------
  | A B C D E F G H 

Turn of: white
Succesful move
h1h3
8 | R _ _ Q _ N R _ 
7 | P _ _ _ P K B _ 
6 | _ P P P _ P _ _ 
5 | _ _ _ _ _ P _ P 
4 | _ _ P _ B _ _ P 
3 | N P _ _ _ _ _ R 
2 | P _ _ _ P _ _ _ 
1 | _ K _ _ R Q _ _ 
-------------------
  | A B C D E F G H 

Turn of: black
Succesful move
d8c7
8 | R _ _ _ _ N R _ 
7 | P _ Q _ P K B _ 
6 | _ P P P _ P _ _ 
5 | _ _ _ _ _ P _ P 
4 | _ _ P _ B _ _ P 
3 | N P _ _ _ _ _ R 
2 | P _ _ _ P _ _ _ 
1 | _ K _ _ R Q _ _ 
-------------------
  | A B C D E F G H 

Turn of: white
Succesful move
h3e3
8 | R _ _ _ _ N R _ 
7 | P _ Q _ P K B _ 
6 | _ P P P _ P _ _ 
5 | _ _ _ _ _ P _ P 
4 | _ _ P _ B _ _ P 
3 | N P _ _ R _ _ _ 
2 | P _ _ _ P _ _ _ 
1 | _ K _ _ R Q _ _ 
-------------------
  | A B C D E F G H 

Turn of: black
Succesful move
h4h3
8 | R _ _ _ _ N R _ 
7 | P _ Q _ P K B _ 
6 | _ P P P _ P _ _ 
5 | _ _ _ _ _ P _ P 
4 | _ _ P _ B _ _ _ 
3 | N P _ _ R _ _ P 
2 | P _ _ _ P _ _ _ 
1 | _ K _ _ R Q _ _ 
-------------------
  | A B C D E F G H 

Turn of: white
Succesful move
f1h3
8 | R _ _ _ _ N R _ 
7 | P _ Q _ P K B _ 
6 | _ P P P _ P _ _ 
5 | _ _ _ _ _ P _ P 
4 | _ _ P _ B _ _ _ 
3 | N P _ _ R _ _ Q 
2 | P _ _ _ P _ _ _ 
1 | _ K _ _ R _ _ _ 
-------------------
  | A B C D E F G H 

Turn of: black
Succesful move
h5h4
8 | R _ _ _ _ N R _ 
7 | P _ Q _ P K B _ 
6 | _ P P P _ P _ _ 
5 | _ _ _ _ _ P _ _ 
4 | _ _ P _ B _ _ P 
3 | N P _ _ R _ _ Q 
2 | P _ _ _ P _ _ _ 
1 | _ K _ _ R _ _ _ 
-------------------
  | A B C D E F G H 

Turn of: white
Succesful move
h3g2
8 | R _ _ _ _ N R _ 
7 | P _ Q _ P K B _ 
6 | _ P P P _ P _ _ 
5 | _ _ _ _ _ P _ _ 
4 | _ _ P _ B _ _ P 
3 | N P _ _ R _ _ _ 
2 | P _ _ _ P _ Q _ 
1 | _ K _ _ R _ _ _ 
-------------------
  | A B C D E F G H 

Turn of: black
Succesful move
h4h3
8 | R _ _ _ _ N R _ 
7 | P _ Q _ P K B _ 
6 | _ P P P _ P _ _ 
5 | _ _ _ _ _ P _ _ 
4 | _ _ P _ B _ _ _ 
3 | N P _ _ R _ _ P 
2 | P _ _ _ P _ Q _ 
1 | _ K _ _ R _ _ _ 
-------------------
  | A B C D E F G H 

Turn of: white
Succesful move
e4d5
8 | R _ _ _ _ N R _ 
7 | P _ Q _ P K B _ 
6 | _ P P P _ P _ _ 
5 | _ _ _ B _ P _ _ 
4 | _ _ P _ _ _ _ _ 
3 | N P _ _ R _ _ P 
2 | P _ _ _ P _ Q _ 
1 | _ K _ _ R _ _ _ 
-------------------
  | A B C D E F G H 

Turn of: black
Succesful move
f8e6
8 | R _ _ _ _ _ R _ 
7 | P _ Q _ P K B _ 
6 | _ P P P N P _ _ 
5 | _ _ _ B _ P _ _ 
4 | _ _ P _ _ _ _ _ 
3 | N P _ _ R _ _ P 
2 | P _ _ _ P _ Q _ 
1 | _ K _ _ R _ _ _ 
-------------------
  | A B C D E F G H 

Turn of: white
Succesful move
e3e5
8 | R _ _ _ _ _ R _ 
7 | P _ Q _ P K B _ 
6 | _ P P P N P _ _ 
5 | _ _ _ B R P _ _ 
4 | _ _ P _ _ _ _ _ 
3 | N P _ _ _ _ _ P 
2 | P _ _ _ P _ Q _ 
1 | _ K _ _ R _ _ _ 
-------------------
  | A B C D E F G H 

Turn of: black
Succesful move
g8f8
8 | R _ _ _ _ R _ _ 
7 | P _ Q _ P K B _ 
6 | _ P P P N P _ _ 
5 | _ _ _ B R P _ _ 
4 | _ _ P _ _ _ _ _ 
3 | N P _ _ _ _ _ P 
2 | P _ _ _ P _ Q _ 
1 | _ K _ _ R _ _ _ 
-------------------
  | A B C D E F G H 

Turn of: white
Succesful move
b1c2
8 | R _ _ _ _ R _ _ 
7 | P _ Q _ P K B _ 
6 | _ P P P N P _ _ 
5 | _ _ _ B R P _ _ 
4 | _ _ P _ _ _ _ _ 
3 | N P _ _ _ _ _ P 
2 | P _ K _ P _ Q _ 
1 | _ _ _ _ R _ _ _ 
-------------------
  | A B C D E F G H 

Turn of: black
Succesful move
g7h6
8 | R _ _ _ _ R _ _ 
7 | P _ Q _ P K _ _ 
6 | _ P P P N P _ B 
5 | _ _ _ B R P _ _ 
4 | _ _ P _ _ _ _ _ 
3 | N P _ _ _ _ _ P 
2 | P _ K _ P _ Q _ 
1 | _ _ _ _ R _ _ _ 
-------------------
  | A B C D E F G H 

Turn of: white
Succesful move
g2h2
8 | R _ _ _ _ R _ _ 
7 | P _ Q _ P K _ _ 
6 | _ P P P N P _ B 
5 | _ _ _ B R P _ _ 
4 | _ _ P _ _ _ _ _ 
3 | N P _ _ _ _ _ P 
2 | P _ K _ P _ _ Q 
1 | _ _ _ _ R _ _ _ 
-------------------
  | A B C D E F G H 

Turn of: black
Succesful move
f8h8
8 | R _ _ _ _ _ _ R 
7 | P _ Q _ P K _ _ 
6 | _ P P P N P _ B 
5 | _ _ _ B R P _ _ 
4 | _ _ P _ _ _ _ _ 
3 | N P _ _ _ _ _ P 
2 | P _ K _ P _ _ Q 
1 | _ _ _ _ R _ _ _ 
-------------------
  | A B C D E F G H 

Turn of: white
Succesful move
e1h1
8 | R _ _ _ _ _ _ R 
7 | P _ Q _ P K _ _ 
6 | _ P P P N P _ B 
5 | _ _ _ B R P _ _ 
4 | _ _ P _ _ _ _ _ 
3 | N P _ _ _ _ _ P 
2 | P _ K _ P _ _ Q 
1 | _ _ _ _ _ _ _ R 
-------------------
  | A B C D E F G H 

Turn of: black
Succesful move
h6c1
8 | R _ _ _ _ _ _ R 
7 | P _ Q _ P K _ _ 
6 | _ P P P N P _ _ 
5 | _ _ _ B R P _ _ 
4 | _ _ P _ _ _ _ _ 
3 | N P _ _ _ _ _ P 
2 | P _ K _ P _ _ Q 
1 | _ _ B _ _ _ _ R 
-------------------
  | A B C D E F G H 

Turn of: white
Succesful move
h2g2
8 | R _ _ _ _ _ _ R 
7 | P _ Q _ P K _ _ 
6 | _ P P P N P _ _ 
5 | _ _ _ B R P _ _ 
4 | _ _ P _ _ _ _ _ 
3 | N P _ _ _ _ _ P 
2 | P _ K _ P _ Q _ 
1 | _ _ B _ _ _ _ R 
-------------------
  | A B C D E F G H 

Turn of: black
Succesful move
d6e5
8 | R _ _ _ _ _ _ R 
7 | P _ Q _ P K _ _ 
6 | _ P P _ N P _ _ 
5 | _ _ _ B P P _ _ 
4 | _ _ P _ _ _ _ _ 
3 | N P _ _ _ _ _ P 
2 | P _ K _ P _ Q _ 
1 | _ _ B _ _ _ _ R 
-------------------
  | A B C D E F G H 

Turn of: white
Succesful move
h1h3
8 | R _ _ _ _ _ _ R 
7 | P _ Q _ P K _ _ 
6 | _ P P _ N P _ _ 
5 | _ _ _ B P P _ _ 
4 | _ _ P _ _ _ _ _ 
3 | N P _ _ _ _ _ R 
2 | P _ K _ P _ Q _ 
1 | _ _ B _ _ _ _ _ 
-------------------
  | A B C D E F G H 

Turn of: black
Succesful move
c7b8
8 | R Q _ _ _ _ _ R 
7 | P _ _ _ P K _ _ 
6 | _ P P _ N P _ _ 
5 | _ _ _ B P P _ _ 
4 | _ _ P _ _ _ _ _ 
3 | N P _ _ _ _ _ R 
2 | P _ K _ P _ Q _ 
1 | _ _ B _ _ _ _ _ 
-------------------
  | A B C D E F G H 

Turn of: white
Succesful move
c6c7
8 | R Q _ _ _ _ _ R 
7 | P _ P _ P K _ _ 
6 | _ P _ _ N P _ _ 
5 | _ _ _ B P P _ _ 
4 | _ _ P _ _ _ _ _ 
3 | N P _ _ _ _ _ R 
2 | P _ K _ P _ Q _ 
1 | _ _ B _ _ _ _ _ 
-------------------
  | A B C D E F G H 

Turn of: black
Succesful move
h8h5
8 | R Q _ _ _ _ _ _ 
7 | P _ P _ P K _ _ 
6 | _ P _ _ N P _ _ 
5 | _ _ _ B P P _ R 
4 | _ _ P _ _ _ _ _ 
3 | N P _ _ _ _ _ R 
2 | P _ K _ P _ Q _ 
1 | _ _ B _ _ _ _ _ 
-------------------
  | A B C D E F G H 

Turn of: white
Succesful move
g2g4
8 | R Q _ _ _ _ _ _ 
7 | P _ P _ P K _ _ 
6 | _ P _ _ N P _ _ 
5 | _ _ _ B P P _ R 
4 | _ _ P _ _ _ Q _ 
3 | N P _ _ _ _ _ R 
2 | P _ K _ P _ _ _ 
1 | _ _ B _ _ _ _ _ 
-------------------
  | A B C D E F G H 

Turn of: black
Succesful move
e5e4
8 | R Q _ _ _ _ _ _ 
7 | P _ P _ P K _ _ 
6 | _ P _ _ N P _ _ 
5 | _ _ _ B _ P _ R 
4 | _ _ P _ P _ Q _ 
3 | N P _ _ _ _ _ R 
2 | P _ K _ P _ _ _ 
1 | _ _ B _ _ _ _ _ 
-------------------
  | A B C D E F G H 

Turn of: white
Succesful move
c2c3
8 | R Q _ _ _ _ _ _ 
7 | P _ P _ P K _ _ 
6 | _ P _ _ N P _ _ 
5 | _ _ _ B _ P _ R 
4 | _ _ P _ P _ Q _ 
3 | N P K _ _ _ _ R 
2 | P _ _ _ P _ _ _ 
1 | _ _ B _ _ _ _ _ 
-------------------
  | A B C D E F G H 

Turn of: black
Succesful move
h5h6
8 | R Q _ _ _ _ _ _ 
7 | P _ P _ P K _ _ 
6 | _ P _ _ N P _ R 
5 | _ _ _ B _ P _ _ 
4 | _ _ P _ P _ Q _ 
3 | N P K _ _ _ _ R 
2 | P _ _ _ P _ _ _ 
1 | _ _ B _ _ _ _ _ 
-------------------
  | A B C D E F G H 

Turn of: white
Succesful move
d5c6
8 | R Q _ _ _ _ _ _ 
7 | P _ P _ P K _ _ 
6 | _ P B _ N P _ R 
5 | _ _ _ _ _ P _ _ 
4 | _ _ P _ P _ Q _ 
3 | N P K _ _ _ _ R 
2 | P _ _ _ P _ _ _ 
1 | _ _ B _ _ _ _ _ 
-------------------
  | A B C D E F G H 

Turn of: black
Succesful move
c1d2
8 | R Q _ _ _ _ _ _ 
7 | P _ P _ P K _ _ 
6 | _ P B _ N P _ R 
5 | _ _ _ _ _ P _ _ 
4 | _ _ P _ P _ Q _ 
3 | N P K _ _ _ _ R 
2 | P _ _ B P _ _ _ 
1 | _ _ _ _ _ _ _ _ 
-------------------
  | A B C D E F G H 

Turn of: white
Succesful move
c3b2
8 | R Q _ _ _ _ _ _ 
7 | P _ P _ P K _ _ 
6 | _ P B _ N P _ R 
5 | _ _ _ _ _ P _ _ 
4 | _ _ P _ P _ Q _ 
3 | N P _ _ _ _ _ R 
2 | P K _ B P _ _ _ 
1 | _ _ _ _ _ _ _ _ 
-------------------
  | A B C D E F G H 

Turn of: black
Succesful move
h6h7
8 | R Q _ _ _ _ _ _ 
7 | P _ P _ P K _ R 
6 | _ P B _ N P _ _ 
5 | _ _ _ _ _ P _ _ 
4 | _ _ P _ P _ Q _ 
3 | N P _ _ _ _ _ R 
2 | P K _ B P _ _ _ 
1 | _ _ _ _ _ _ _ _ 
-------------------
  | A B C D E F G H 

We are playing as White
Move history:
d2d3
d7d6
c2c4
b8c6
c1g5
c8d7
g2g4
a8c8
b1a3
d7g4
g5f6
b7b6
h2h3
g4f3
g1f3
c6e5
d1d2
g8f6
h3h4
e5g4
b2b3
c8a8
f1g2
g4e3
d2d1
h7h5
e1d2
g7g5
d1f1
f6g4
d3d4
g5h4
d2d3
g4f6
f3g1
f6h7
d4d5
f8h6
a3b1
h6g7
f2f4
c7c6
d5c6
f7f6
f4f5
e8f7
g2e4
h7f8
d3c3
e3g2
c3b2
g2f4
b1a3
h8g8
g1h3
f4h3
a1e1
h3g5
b2b1
g5h3
h1h3
d8c7
h3e3
h4h3
f1h3
h5h4
h3g2
h4h3
e4d5
f8e6
e3e5
g8f8
b1c2
g7h6
g2h2
f8h8
e1h1
h6c1
h2g2
d6e5
h1h3
c7b8
c6c7
h8h5
g2g4
e5e4
c2c3
h5h6
d5c6
c1d2
c3b2
h6h7
8 | R Q _ _ _ _ _ _ 
7 | P _ P _ P K _ R 
6 | _ P B _ N P _ _ 
5 | _ _ _ _ _ P _ _ 
4 | _ _ P _ P _ Q _ 
3 | N P _ _ _ _ _ R 
2 | P K _ B P _ _ _ 
1 | _ _ _ _ _ _ _ _ 
-------------------
  | A B C D E F G H 

It is white's turn to play.
AI's move: c7b8k
Move written: c7b8k
[32;1m[Game] [0mPlayer's error code: 0
[32;1m[Game] [0mChecking move validity...
[32;1m[Board] [0mInitializing board...
[32;1m[Board] [0mLoading history file `championship/lizzie-iii-jykchess/history.csv`...
[32;1m[Board] [0mLoaded 92 move(s).
[32;1m[Board] [0mLoading move file `championship/lizzie-iii-jykchess/move.csv`...
[32;1m[Board] [0mWhite player is playing c7 to b8.
[32;1m[Board] [0m[5;1mWhite Pawn is taking Black Queen.[0m
[32;1m[Board] [0mPromoting a White Pawn into a Knight
[32;1m[Board] [0m
[32;1m[Board] [0m    a b c d e f g h 
[32;1m[Board] [0m  -------------------
[32;1m[Board] [0m8 ||[30;1mr[0m|[0;1mk[0m|[7;1m [0m| |[7;1m [0m| |[7;1m [0m| || 8
[32;1m[Board] [0m  -------------------
[32;1m[Board] [0m7 ||[30;1mp[0m|[7;1m [0m| |[7;1m [0m|[30;1mp[0m|[30;1mK[0m| |[30;1mr[0m|| 7
[32;1m[Board] [0m  -------------------
[32;1m[Board] [0m6 ||[7;1m [0m|[30;1mp[0m|[0;1mb[0m| |[30;1mk[0m|[30;1mp[0m|[7;1m [0m| || 6
[32;1m[Board] [0m  -------------------
[32;1m[Board] [0m5 || |[7;1m [0m| |[7;1m [0m| |[0;1mp[0m| |[7;1m [0m|| 5
[32;1m[Board] [0m  -------------------
[32;1m[Board] [0m4 ||[7;1m [0m| |[0;1mp[0m| |[30;1mp[0m| |[0;1mQ[0m| || 4
[32;1m[Board] [0m  -------------------
[32;1m[Board] [0m3 ||[0;1mk[0m|[0;1mp[0m| |[7;1m [0m| |[7;1m [0m| |[0;1mr[0m|| 3
[32;1m[Board] [0m  -------------------
[32;1m[Board] [0m2 ||[0;1mp[0m|[0;1mK[0m|[7;1m [0m|[30;1mb[0m|[0;1mp[0m| |[7;1m [0m| || 2
[32;1m[Board] [0m  -------------------
[32;1m[Board] [0m1 || |[7;1m [0m| |[7;1m [0m| |[7;1m [0m| |[7;1m [0m|| 1
[32;1m[Board] [0m  -------------------
[32;1m[Board] [0m    a b c d e f g h
[32;1m[Board] [0m
[32;1m[Referee] [0mThis is the turn of the Black player...
Error: Invalid move for the selected piece
[32;1m[Game] [0mPlayer's error code: 256
[32;1m[Game] [0mChecking move validity...
[32;1m[Board] [0mInitializing board...
[32;1m[Board] [0mLoading history file `championship/lizzie-iii-jykchess/history.csv`...
[32;1m[Board] [0mLoaded 93 move(s).
[32;1m[Board] [0mLoading move file `championship/lizzie-iii-jykchess/move.csv`...
[32;1m[Board] [0mBlack player is playing c7 to b8.
[32;1m[Board] [0m[31;1m[ERROR][0m Move source (c7) contains no piece :(
[32;1m[Referee] [0mInvalid move (code: -3) :(
[32;1m[Game] [0mBlack player has lost on illegal move.
