[32;1m[Board] [0mInitializing board...
[32;1m[Board] [0m
[32;1m[Board] [0m    a b c d e f g h 
[32;1m[Board] [0m  -------------------
[32;1m[Board] [0m8 ||[30;1mr[0m|[30;1mk[0m|[30;1mb[0m|[30;1mQ[0m|[30;1mK[0m|[30;1mb[0m|[30;1mk[0m|[30;1mr[0m|| 8
[32;1m[Board] [0m  -------------------
[32;1m[Board] [0m7 ||[30;1mp[0m|[30;1mp[0m|[30;1mp[0m|[30;1mp[0m|[30;1mp[0m|[30;1mp[0m|[30;1mp[0m|[30;1mp[0m|| 7
[32;1m[Board] [0m  -------------------
[32;1m[Board] [0m6 ||[7;1m [0m| |[7;1m [0m| |[7;1m [0m| |[7;1m [0m| || 6
[32;1m[Board] [0m  -------------------
[32;1m[Board] [0m5 || |[7;1m [0m| |[7;1m [0m| |[7;1m [0m| |[7;1m [0m|| 5
[32;1m[Board] [0m  -------------------
[32;1m[Board] [0m4 ||[7;1m [0m| |[7;1m [0m| |[7;1m [0m| |[7;1m [0m| || 4
[32;1m[Board] [0m  -------------------
[32;1m[Board] [0m3 || |[7;1m [0m| |[7;1m [0m| |[7;1m [0m| |[7;1m [0m|| 3
[32;1m[Board] [0m  -------------------
[32;1m[Board] [0m2 ||[0;1mp[0m|[0;1mp[0m|[0;1mp[0m|[0;1mp[0m|[0;1mp[0m|[0;1mp[0m|[0;1mp[0m|[0;1mp[0m|| 2
[32;1m[Board] [0m  -------------------
[32;1m[Board] [0m1 ||[0;1mr[0m|[0;1mk[0m|[0;1mb[0m|[0;1mQ[0m|[0;1mK[0m|[0;1mb[0m|[0;1mk[0m|[0;1mr[0m|| 1
[32;1m[Board] [0m  -------------------
[32;1m[Board] [0m    a b c d e f g h
[32;1m[Board] [0m
[32;1m[Referee] [0mThis is the turn of the White player...
Input file: championship/lizzie-iii-bbd/history.csv
Output file: championship/lizzie-iii-bbd/move.csv
We are playing as White
Move history:
8 | R N B Q K B N R 
7 | P P P P P P P P 
6 | _ _ _ _ _ _ _ _ 
5 | _ _ _ _ _ _ _ _ 
4 | _ _ _ _ _ _ _ _ 
3 | _ _ _ _ _ _ _ _ 
2 | P P P P P P P P 
1 | R N B Q K B N R 
-------------------
  | A B C D E F G H 

It is white's turn to play.
AI's move: d2d4
Move written: d2d4
[32;1m[Game] [0mPlayer's error code: 0
[32;1m[Game] [0mChecking move validity...
[32;1m[Board] [0mInitializing board...
[32;1m[Board] [0mLoading history file `championship/lizzie-iii-bbd/history.csv`...
[32;1m[Board] [0mLoaded 0 move(s).
[32;1m[Board] [0mLoading move file `championship/lizzie-iii-bbd/move.csv`...
[32;1m[Board] [0mWhite player is playing d2 to d4.
[32;1m[Board] [0m
[32;1m[Board] [0m    a b c d e f g h 
[32;1m[Board] [0m  -------------------
[32;1m[Board] [0m8 ||[30;1mr[0m|[30;1mk[0m|[30;1mb[0m|[30;1mQ[0m|[30;1mK[0m|[30;1mb[0m|[30;1mk[0m|[30;1mr[0m|| 8
[32;1m[Board] [0m  -------------------
[32;1m[Board] [0m7 ||[30;1mp[0m|[30;1mp[0m|[30;1mp[0m|[30;1mp[0m|[30;1mp[0m|[30;1mp[0m|[30;1mp[0m|[30;1mp[0m|| 7
[32;1m[Board] [0m  -------------------
[32;1m[Board] [0m6 ||[7;1m [0m| |[7;1m [0m| |[7;1m [0m| |[7;1m [0m| || 6
[32;1m[Board] [0m  -------------------
[32;1m[Board] [0m5 || |[7;1m [0m| |[7;1m [0m| |[7;1m [0m| |[7;1m [0m|| 5
[32;1m[Board] [0m  -------------------
[32;1m[Board] [0m4 ||[7;1m [0m| |[7;1m [0m|[0;1mp[0m|[7;1m [0m| |[7;1m [0m| || 4
[32;1m[Board] [0m  -------------------
[32;1m[Board] [0m3 || |[7;1m [0m| |[7;1m [0m| |[7;1m [0m| |[7;1m [0m|| 3
[32;1m[Board] [0m  -------------------
[32;1m[Board] [0m2 ||[0;1mp[0m|[0;1mp[0m|[0;1mp[0m| |[0;1mp[0m|[0;1mp[0m|[0;1mp[0m|[0;1mp[0m|| 2
[32;1m[Board] [0m  -------------------
[32;1m[Board] [0m1 ||[0;1mr[0m|[0;1mk[0m|[0;1mb[0m|[0;1mQ[0m|[0;1mK[0m|[0;1mb[0m|[0;1mk[0m|[0;1mr[0m|| 1
[32;1m[Board] [0m  -------------------
[32;1m[Board] [0m    a b c d e f g h
[32;1m[Board] [0m
[32;1m[Referee] [0mThis is the turn of the Black player...
info score 218 depth 1 nodes 26 time 0
info score 74 depth 2 nodes 440 time 0
info score 178 depth 3 nodes 2173 time 4
info score 74 depth 4 nodes 4379 time 8
info score 65 depth 5 nodes 36232 time 70
info score -35 depth 6 nodes 118483 time 235
info score 18 depth 7 nodes 858685 time 1776
bestmove g8f6
[32;1m[Game] [0mPlayer's error code: 0
[32;1m[Game] [0mChecking move validity...
[32;1m[Board] [0mInitializing board...
[32;1m[Board] [0mLoading history file `championship/lizzie-iii-bbd/history.csv`...
[32;1m[Board] [0mLoaded 1 move(s).
[32;1m[Board] [0mLoading move file `championship/lizzie-iii-bbd/move.csv`...
[32;1m[Board] [0mBlack player is playing g8 to f6.
[32;1m[Board] [0m
[32;1m[Board] [0m    a b c d e f g h 
[32;1m[Board] [0m  -------------------
[32;1m[Board] [0m8 ||[30;1mr[0m|[30;1mk[0m|[30;1mb[0m|[30;1mQ[0m|[30;1mK[0m|[30;1mb[0m|[7;1m [0m|[30;1mr[0m|| 8
[32;1m[Board] [0m  -------------------
[32;1m[Board] [0m7 ||[30;1mp[0m|[30;1mp[0m|[30;1mp[0m|[30;1mp[0m|[30;1mp[0m|[30;1mp[0m|[30;1mp[0m|[30;1mp[0m|| 7
[32;1m[Board] [0m  -------------------
[32;1m[Board] [0m6 ||[7;1m [0m| |[7;1m [0m| |[7;1m [0m|[30;1mk[0m|[7;1m [0m| || 6
[32;1m[Board] [0m  -------------------
[32;1m[Board] [0m5 || |[7;1m [0m| |[7;1m [0m| |[7;1m [0m| |[7;1m [0m|| 5
[32;1m[Board] [0m  -------------------
[32;1m[Board] [0m4 ||[7;1m [0m| |[7;1m [0m|[0;1mp[0m|[7;1m [0m| |[7;1m [0m| || 4
[32;1m[Board] [0m  -------------------
[32;1m[Board] [0m3 || |[7;1m [0m| |[7;1m [0m| |[7;1m [0m| |[7;1m [0m|| 3
[32;1m[Board] [0m  -------------------
[32;1m[Board] [0m2 ||[0;1mp[0m|[0;1mp[0m|[0;1mp[0m| |[0;1mp[0m|[0;1mp[0m|[0;1mp[0m|[0;1mp[0m|| 2
[32;1m[Board] [0m  -------------------
[32;1m[Board] [0m1 ||[0;1mr[0m|[0;1mk[0m|[0;1mb[0m|[0;1mQ[0m|[0;1mK[0m|[0;1mb[0m|[0;1mk[0m|[0;1mr[0m|| 1
[32;1m[Board] [0m  -------------------
[32;1m[Board] [0m    a b c d e f g h
[32;1m[Board] [0m
[32;1m[Referee] [0mThis is the turn of the White player...
Input file: championship/lizzie-iii-bbd/history.csv
Output file: championship/lizzie-iii-bbd/move.csv
Turn of: white
Succesful move
d2d4
8 | R N B Q K B N R 
7 | P P P P P P P P 
6 | _ _ _ _ _ _ _ _ 
5 | _ _ _ _ _ _ _ _ 
4 | _ _ _ P _ _ _ _ 
3 | _ _ _ _ _ _ _ _ 
2 | P P P _ P P P P 
1 | R N B Q K B N R 
-------------------
  | A B C D E F G H 

Turn of: black
Succesful move
g8f6
8 | R N B Q K B _ R 
7 | P P P P P P P P 
6 | _ _ _ _ _ N _ _ 
5 | _ _ _ _ _ _ _ _ 
4 | _ _ _ P _ _ _ _ 
3 | _ _ _ _ _ _ _ _ 
2 | P P P _ P P P P 
1 | R N B Q K B N R 
-------------------
  | A B C D E F G H 

We are playing as White
Move history:
d2d4
g8f6
8 | R N B Q K B _ R 
7 | P P P P P P P P 
6 | _ _ _ _ _ N _ _ 
5 | _ _ _ _ _ _ _ _ 
4 | _ _ _ P _ _ _ _ 
3 | _ _ _ _ _ _ _ _ 
2 | P P P _ P P P P 
1 | R N B Q K B N R 
-------------------
  | A B C D E F G H 

It is white's turn to play.
AI's move: d1d2
Move written: d1d2
[32;1m[Game] [0mPlayer's error code: 0
[32;1m[Game] [0mChecking move validity...
[32;1m[Board] [0mInitializing board...
[32;1m[Board] [0mLoading history file `championship/lizzie-iii-bbd/history.csv`...
[32;1m[Board] [0mLoaded 2 move(s).
[32;1m[Board] [0mLoading move file `championship/lizzie-iii-bbd/move.csv`...
[32;1m[Board] [0mWhite player is playing d1 to d2.
[32;1m[Board] [0m
[32;1m[Board] [0m    a b c d e f g h 
[32;1m[Board] [0m  -------------------
[32;1m[Board] [0m8 ||[30;1mr[0m|[30;1mk[0m|[30;1mb[0m|[30;1mQ[0m|[30;1mK[0m|[30;1mb[0m|[7;1m [0m|[30;1mr[0m|| 8
[32;1m[Board] [0m  -------------------
[32;1m[Board] [0m7 ||[30;1mp[0m|[30;1mp[0m|[30;1mp[0m|[30;1mp[0m|[30;1mp[0m|[30;1mp[0m|[30;1mp[0m|[30;1mp[0m|| 7
[32;1m[Board] [0m  -------------------
[32;1m[Board] [0m6 ||[7;1m [0m| |[7;1m [0m| |[7;1m [0m|[30;1mk[0m|[7;1m [0m| || 6
[32;1m[Board] [0m  -------------------
[32;1m[Board] [0m5 || |[7;1m [0m| |[7;1m [0m| |[7;1m [0m| |[7;1m [0m|| 5
[32;1m[Board] [0m  -------------------
[32;1m[Board] [0m4 ||[7;1m [0m| |[7;1m [0m|[0;1mp[0m|[7;1m [0m| |[7;1m [0m| || 4
[32;1m[Board] [0m  -------------------
[32;1m[Board] [0m3 || |[7;1m [0m| |[7;1m [0m| |[7;1m [0m| |[7;1m [0m|| 3
[32;1m[Board] [0m  -------------------
[32;1m[Board] [0m2 ||[0;1mp[0m|[0;1mp[0m|[0;1mp[0m|[0;1mQ[0m|[0;1mp[0m|[0;1mp[0m|[0;1mp[0m|[0;1mp[0m|| 2
[32;1m[Board] [0m  -------------------
[32;1m[Board] [0m1 ||[0;1mr[0m|[0;1mk[0m|[0;1mb[0m|[7;1m [0m|[0;1mK[0m|[0;1mb[0m|[0;1mk[0m|[0;1mr[0m|| 1
[32;1m[Board] [0m  -------------------
[32;1m[Board] [0m    a b c d e f g h
[32;1m[Board] [0m
[32;1m[Referee] [0mThis is the turn of the Black player...
info score 355 depth 1 nodes 27 time 0
info score 211 depth 2 nodes 542 time 1
info score 221 depth 3 nodes 2352 time 4
info score 95 depth 4 nodes 5748 time 12
info score 180 depth 5 nodes 45769 time 94
info score 123 depth 6 nodes 291082 time 603
bestmove g7g6
[32;1m[Game] [0mPlayer's error code: 0
[32;1m[Game] [0mChecking move validity...
[32;1m[Board] [0mInitializing board...
[32;1m[Board] [0mLoading history file `championship/lizzie-iii-bbd/history.csv`...
[32;1m[Board] [0mLoaded 3 move(s).
[32;1m[Board] [0mLoading move file `championship/lizzie-iii-bbd/move.csv`...
[32;1m[Board] [0mBlack player is playing g7 to g6.
[32;1m[Board] [0m
[32;1m[Board] [0m    a b c d e f g h 
[32;1m[Board] [0m  -------------------
[32;1m[Board] [0m8 ||[30;1mr[0m|[30;1mk[0m|[30;1mb[0m|[30;1mQ[0m|[30;1mK[0m|[30;1mb[0m|[7;1m [0m|[30;1mr[0m|| 8
[32;1m[Board] [0m  -------------------
[32;1m[Board] [0m7 ||[30;1mp[0m|[30;1mp[0m|[30;1mp[0m|[30;1mp[0m|[30;1mp[0m|[30;1mp[0m| |[30;1mp[0m|| 7
[32;1m[Board] [0m  -------------------
[32;1m[Board] [0m6 ||[7;1m [0m| |[7;1m [0m| |[7;1m [0m|[30;1mk[0m|[30;1mp[0m| || 6
[32;1m[Board] [0m  -------------------
[32;1m[Board] [0m5 || |[7;1m [0m| |[7;1m [0m| |[7;1m [0m| |[7;1m [0m|| 5
[32;1m[Board] [0m  -------------------
[32;1m[Board] [0m4 ||[7;1m [0m| |[7;1m [0m|[0;1mp[0m|[7;1m [0m| |[7;1m [0m| || 4
[32;1m[Board] [0m  -------------------
[32;1m[Board] [0m3 || |[7;1m [0m| |[7;1m [0m| |[7;1m [0m| |[7;1m [0m|| 3
[32;1m[Board] [0m  -------------------
[32;1m[Board] [0m2 ||[0;1mp[0m|[0;1mp[0m|[0;1mp[0m|[0;1mQ[0m|[0;1mp[0m|[0;1mp[0m|[0;1mp[0m|[0;1mp[0m|| 2
[32;1m[Board] [0m  -------------------
[32;1m[Board] [0m1 ||[0;1mr[0m|[0;1mk[0m|[0;1mb[0m|[7;1m [0m|[0;1mK[0m|[0;1mb[0m|[0;1mk[0m|[0;1mr[0m|| 1
[32;1m[Board] [0m  -------------------
[32;1m[Board] [0m    a b c d e f g h
[32;1m[Board] [0m
[32;1m[Referee] [0mThis is the turn of the White player...
Input file: championship/lizzie-iii-bbd/history.csv
Output file: championship/lizzie-iii-bbd/move.csv
Turn of: white
Succesful move
d2d4
8 | R N B Q K B N R 
7 | P P P P P P P P 
6 | _ _ _ _ _ _ _ _ 
5 | _ _ _ _ _ _ _ _ 
4 | _ _ _ P _ _ _ _ 
3 | _ _ _ _ _ _ _ _ 
2 | P P P _ P P P P 
1 | R N B Q K B N R 
-------------------
  | A B C D E F G H 

Turn of: black
Succesful move
g8f6
8 | R N B Q K B _ R 
7 | P P P P P P P P 
6 | _ _ _ _ _ N _ _ 
5 | _ _ _ _ _ _ _ _ 
4 | _ _ _ P _ _ _ _ 
3 | _ _ _ _ _ _ _ _ 
2 | P P P _ P P P P 
1 | R N B Q K B N R 
-------------------
  | A B C D E F G H 

Turn of: white
Succesful move
d1d2
8 | R N B Q K B _ R 
7 | P P P P P P P P 
6 | _ _ _ _ _ N _ _ 
5 | _ _ _ _ _ _ _ _ 
4 | _ _ _ P _ _ _ _ 
3 | _ _ _ _ _ _ _ _ 
2 | P P P Q P P P P 
1 | R N B _ K B N R 
-------------------
  | A B C D E F G H 

Turn of: black
Succesful move
g7g6
8 | R N B Q K B _ R 
7 | P P P P P P _ P 
6 | _ _ _ _ _ N P _ 
5 | _ _ _ _ _ _ _ _ 
4 | _ _ _ P _ _ _ _ 
3 | _ _ _ _ _ _ _ _ 
2 | P P P Q P P P P 
1 | R N B _ K B N R 
-------------------
  | A B C D E F G H 

We are playing as White
Move history:
d2d4
g8f6
d1d2
g7g6
8 | R N B Q K B _ R 
7 | P P P P P P _ P 
6 | _ _ _ _ _ N P _ 
5 | _ _ _ _ _ _ _ _ 
4 | _ _ _ P _ _ _ _ 
3 | _ _ _ _ _ _ _ _ 
2 | P P P Q P P P P 
1 | R N B _ K B N R 
-------------------
  | A B C D E F G H 

It is white's turn to play.
AI's move: h2h4
Move written: h2h4
[32;1m[Game] [0mPlayer's error code: 0
[32;1m[Game] [0mChecking move validity...
[32;1m[Board] [0mInitializing board...
[32;1m[Board] [0mLoading history file `championship/lizzie-iii-bbd/history.csv`...
[32;1m[Board] [0mLoaded 4 move(s).
[32;1m[Board] [0mLoading move file `championship/lizzie-iii-bbd/move.csv`...
[32;1m[Board] [0mWhite player is playing h2 to h4.
[32;1m[Board] [0m
[32;1m[Board] [0m    a b c d e f g h 
[32;1m[Board] [0m  -------------------
[32;1m[Board] [0m8 ||[30;1mr[0m|[30;1mk[0m|[30;1mb[0m|[30;1mQ[0m|[30;1mK[0m|[30;1mb[0m|[7;1m [0m|[30;1mr[0m|| 8
[32;1m[Board] [0m  -------------------
[32;1m[Board] [0m7 ||[30;1mp[0m|[30;1mp[0m|[30;1mp[0m|[30;1mp[0m|[30;1mp[0m|[30;1mp[0m| |[30;1mp[0m|| 7
[32;1m[Board] [0m  -------------------
[32;1m[Board] [0m6 ||[7;1m [0m| |[7;1m [0m| |[7;1m [0m|[30;1mk[0m|[30;1mp[0m| || 6
[32;1m[Board] [0m  -------------------
[32;1m[Board] [0m5 || |[7;1m [0m| |[7;1m [0m| |[7;1m [0m| |[7;1m [0m|| 5
[32;1m[Board] [0m  -------------------
[32;1m[Board] [0m4 ||[7;1m [0m| |[7;1m [0m|[0;1mp[0m|[7;1m [0m| |[7;1m [0m|[0;1mp[0m|| 4
[32;1m[Board] [0m  -------------------
[32;1m[Board] [0m3 || |[7;1m [0m| |[7;1m [0m| |[7;1m [0m| |[7;1m [0m|| 3
[32;1m[Board] [0m  -------------------
[32;1m[Board] [0m2 ||[0;1mp[0m|[0;1mp[0m|[0;1mp[0m|[0;1mQ[0m|[0;1mp[0m|[0;1mp[0m|[0;1mp[0m| || 2
[32;1m[Board] [0m  -------------------
[32;1m[Board] [0m1 ||[0;1mr[0m|[0;1mk[0m|[0;1mb[0m|[7;1m [0m|[0;1mK[0m|[0;1mb[0m|[0;1mk[0m|[0;1mr[0m|| 1
[32;1m[Board] [0m  -------------------
[32;1m[Board] [0m    a b c d e f g h
[32;1m[Board] [0m
[32;1m[Referee] [0mThis is the turn of the Black player...
info score 358 depth 1 nodes 31 time 0
info score 214 depth 2 nodes 452 time 1
info score 274 depth 3 nodes 3185 time 6
info score 148 depth 4 nodes 7156 time 14
info score 172 depth 5 nodes 45176 time 89
info score 131 depth 6 nodes 208034 time 432
bestmove f6e4
[32;1m[Game] [0mPlayer's error code: 0
[32;1m[Game] [0mChecking move validity...
[32;1m[Board] [0mInitializing board...
[32;1m[Board] [0mLoading history file `championship/lizzie-iii-bbd/history.csv`...
[32;1m[Board] [0mLoaded 5 move(s).
[32;1m[Board] [0mLoading move file `championship/lizzie-iii-bbd/move.csv`...
[32;1m[Board] [0mBlack player is playing f6 to e4.
[32;1m[Board] [0m
[32;1m[Board] [0m    a b c d e f g h 
[32;1m[Board] [0m  -------------------
[32;1m[Board] [0m8 ||[30;1mr[0m|[30;1mk[0m|[30;1mb[0m|[30;1mQ[0m|[30;1mK[0m|[30;1mb[0m|[7;1m [0m|[30;1mr[0m|| 8
[32;1m[Board] [0m  -------------------
[32;1m[Board] [0m7 ||[30;1mp[0m|[30;1mp[0m|[30;1mp[0m|[30;1mp[0m|[30;1mp[0m|[30;1mp[0m| |[30;1mp[0m|| 7
[32;1m[Board] [0m  -------------------
[32;1m[Board] [0m6 ||[7;1m [0m| |[7;1m [0m| |[7;1m [0m| |[30;1mp[0m| || 6
[32;1m[Board] [0m  -------------------
[32;1m[Board] [0m5 || |[7;1m [0m| |[7;1m [0m| |[7;1m [0m| |[7;1m [0m|| 5
[32;1m[Board] [0m  -------------------
[32;1m[Board] [0m4 ||[7;1m [0m| |[7;1m [0m|[0;1mp[0m|[30;1mk[0m| |[7;1m [0m|[0;1mp[0m|| 4
[32;1m[Board] [0m  -------------------
[32;1m[Board] [0m3 || |[7;1m [0m| |[7;1m [0m| |[7;1m [0m| |[7;1m [0m|| 3
[32;1m[Board] [0m  -------------------
[32;1m[Board] [0m2 ||[0;1mp[0m|[0;1mp[0m|[0;1mp[0m|[0;1mQ[0m|[0;1mp[0m|[0;1mp[0m|[0;1mp[0m| || 2
[32;1m[Board] [0m  -------------------
[32;1m[Board] [0m1 ||[0;1mr[0m|[0;1mk[0m|[0;1mb[0m|[7;1m [0m|[0;1mK[0m|[0;1mb[0m|[0;1mk[0m|[0;1mr[0m|| 1
[32;1m[Board] [0m  -------------------
[32;1m[Board] [0m    a b c d e f g h
[32;1m[Board] [0m
[32;1m[Referee] [0mThis is the turn of the White player...
Input file: championship/lizzie-iii-bbd/history.csv
Output file: championship/lizzie-iii-bbd/move.csv
Turn of: white
Succesful move
d2d4
8 | R N B Q K B N R 
7 | P P P P P P P P 
6 | _ _ _ _ _ _ _ _ 
5 | _ _ _ _ _ _ _ _ 
4 | _ _ _ P _ _ _ _ 
3 | _ _ _ _ _ _ _ _ 
2 | P P P _ P P P P 
1 | R N B Q K B N R 
-------------------
  | A B C D E F G H 

Turn of: black
Succesful move
g8f6
8 | R N B Q K B _ R 
7 | P P P P P P P P 
6 | _ _ _ _ _ N _ _ 
5 | _ _ _ _ _ _ _ _ 
4 | _ _ _ P _ _ _ _ 
3 | _ _ _ _ _ _ _ _ 
2 | P P P _ P P P P 
1 | R N B Q K B N R 
-------------------
  | A B C D E F G H 

Turn of: white
Succesful move
d1d2
8 | R N B Q K B _ R 
7 | P P P P P P P P 
6 | _ _ _ _ _ N _ _ 
5 | _ _ _ _ _ _ _ _ 
4 | _ _ _ P _ _ _ _ 
3 | _ _ _ _ _ _ _ _ 
2 | P P P Q P P P P 
1 | R N B _ K B N R 
-------------------
  | A B C D E F G H 

Turn of: black
Succesful move
g7g6
8 | R N B Q K B _ R 
7 | P P P P P P _ P 
6 | _ _ _ _ _ N P _ 
5 | _ _ _ _ _ _ _ _ 
4 | _ _ _ P _ _ _ _ 
3 | _ _ _ _ _ _ _ _ 
2 | P P P Q P P P P 
1 | R N B _ K B N R 
-------------------
  | A B C D E F G H 

Turn of: white
Succesful move
h2h4
8 | R N B Q K B _ R 
7 | P P P P P P _ P 
6 | _ _ _ _ _ N P _ 
5 | _ _ _ _ _ _ _ _ 
4 | _ _ _ P _ _ _ P 
3 | _ _ _ _ _ _ _ _ 
2 | P P P Q P P P _ 
1 | R N B _ K B N R 
-------------------
  | A B C D E F G H 

Turn of: black
Succesful move
f6e4
8 | R N B Q K B _ R 
7 | P P P P P P _ P 
6 | _ _ _ _ _ _ P _ 
5 | _ _ _ _ _ _ _ _ 
4 | _ _ _ P N _ _ P 
3 | _ _ _ _ _ _ _ _ 
2 | P P P Q P P P _ 
1 | R N B _ K B N R 
-------------------
  | A B C D E F G H 

We are playing as White
Move history:
d2d4
g8f6
d1d2
g7g6
h2h4
f6e4
8 | R N B Q K B _ R 
7 | P P P P P P _ P 
6 | _ _ _ _ _ _ P _ 
5 | _ _ _ _ _ _ _ _ 
4 | _ _ _ P N _ _ P 
3 | _ _ _ _ _ _ _ _ 
2 | P P P Q P P P _ 
1 | R N B _ K B N R 
-------------------
  | A B C D E F G H 

It is white's turn to play.
AI's move: g2g3
Move written: g2g3
[32;1m[Game] [0mPlayer's error code: 0
[32;1m[Game] [0mChecking move validity...
[32;1m[Board] [0mInitializing board...
[32;1m[Board] [0mLoading history file `championship/lizzie-iii-bbd/history.csv`...
[32;1m[Board] [0mLoaded 6 move(s).
[32;1m[Board] [0mLoading move file `championship/lizzie-iii-bbd/move.csv`...
[32;1m[Board] [0mWhite player is playing g2 to g3.
[32;1m[Board] [0m
[32;1m[Board] [0m    a b c d e f g h 
[32;1m[Board] [0m  -------------------
[32;1m[Board] [0m8 ||[30;1mr[0m|[30;1mk[0m|[30;1mb[0m|[30;1mQ[0m|[30;1mK[0m|[30;1mb[0m|[7;1m [0m|[30;1mr[0m|| 8
[32;1m[Board] [0m  -------------------
[32;1m[Board] [0m7 ||[30;1mp[0m|[30;1mp[0m|[30;1mp[0m|[30;1mp[0m|[30;1mp[0m|[30;1mp[0m| |[30;1mp[0m|| 7
[32;1m[Board] [0m  -------------------
[32;1m[Board] [0m6 ||[7;1m [0m| |[7;1m [0m| |[7;1m [0m| |[30;1mp[0m| || 6
[32;1m[Board] [0m  -------------------
[32;1m[Board] [0m5 || |[7;1m [0m| |[7;1m [0m| |[7;1m [0m| |[7;1m [0m|| 5
[32;1m[Board] [0m  -------------------
[32;1m[Board] [0m4 ||[7;1m [0m| |[7;1m [0m|[0;1mp[0m|[30;1mk[0m| |[7;1m [0m|[0;1mp[0m|| 4
[32;1m[Board] [0m  -------------------
[32;1m[Board] [0m3 || |[7;1m [0m| |[7;1m [0m| |[7;1m [0m|[0;1mp[0m|[7;1m [0m|| 3
[32;1m[Board] [0m  -------------------
[32;1m[Board] [0m2 ||[0;1mp[0m|[0;1mp[0m|[0;1mp[0m|[0;1mQ[0m|[0;1mp[0m|[0;1mp[0m|[7;1m [0m| || 2
[32;1m[Board] [0m  -------------------
[32;1m[Board] [0m1 ||[0;1mr[0m|[0;1mk[0m|[0;1mb[0m|[7;1m [0m|[0;1mK[0m|[0;1mb[0m|[0;1mk[0m|[0;1mr[0m|| 1
[32;1m[Board] [0m  -------------------
[32;1m[Board] [0m    a b c d e f g h
[32;1m[Board] [0m
[32;1m[Referee] [0mThis is the turn of the Black player...
info score 745 depth 1 nodes 32 time 0
info score 745 depth 2 nodes 383 time 0
info score 854 depth 3 nodes 1394 time 2
info score 729 depth 4 nodes 7464 time 15
info score 778 depth 5 nodes 35987 time 69
info score 736 depth 6 nodes 175464 time 354
info score 764 depth 7 nodes 836623 time 1679
bestmove e4d2
[32;1m[Game] [0mPlayer's error code: 0
[32;1m[Game] [0mChecking move validity...
[32;1m[Board] [0mInitializing board...
[32;1m[Board] [0mLoading history file `championship/lizzie-iii-bbd/history.csv`...
[32;1m[Board] [0mLoaded 7 move(s).
[32;1m[Board] [0mLoading move file `championship/lizzie-iii-bbd/move.csv`...
[32;1m[Board] [0mBlack player is playing e4 to d2.
[32;1m[Board] [0m[5;1mBlack Knight is taking White Queen.[0m
[32;1m[Board] [0m
[32;1m[Board] [0m    a b c d e f g h 
[32;1m[Board] [0m  -------------------
[32;1m[Board] [0m8 ||[30;1mr[0m|[30;1mk[0m|[30;1mb[0m|[30;1mQ[0m|[30;1mK[0m|[30;1mb[0m|[7;1m [0m|[30;1mr[0m|| 8
[32;1m[Board] [0m  -------------------
[32;1m[Board] [0m7 ||[30;1mp[0m|[30;1mp[0m|[30;1mp[0m|[30;1mp[0m|[30;1mp[0m|[30;1mp[0m| |[30;1mp[0m|| 7
[32;1m[Board] [0m  -------------------
[32;1m[Board] [0m6 ||[7;1m [0m| |[7;1m [0m| |[7;1m [0m| |[30;1mp[0m| || 6
[32;1m[Board] [0m  -------------------
[32;1m[Board] [0m5 || |[7;1m [0m| |[7;1m [0m| |[7;1m [0m| |[7;1m [0m|| 5
[32;1m[Board] [0m  -------------------
[32;1m[Board] [0m4 ||[7;1m [0m| |[7;1m [0m|[0;1mp[0m|[7;1m [0m| |[7;1m [0m|[0;1mp[0m|| 4
[32;1m[Board] [0m  -------------------
[32;1m[Board] [0m3 || |[7;1m [0m| |[7;1m [0m| |[7;1m [0m|[0;1mp[0m|[7;1m [0m|| 3
[32;1m[Board] [0m  -------------------
[32;1m[Board] [0m2 ||[0;1mp[0m|[0;1mp[0m|[0;1mp[0m|[30;1mk[0m|[0;1mp[0m|[0;1mp[0m|[7;1m [0m| || 2
[32;1m[Board] [0m  -------------------
[32;1m[Board] [0m1 ||[0;1mr[0m|[0;1mk[0m|[0;1mb[0m|[7;1m [0m|[0;1mK[0m|[0;1mb[0m|[0;1mk[0m|[0;1mr[0m|| 1
[32;1m[Board] [0m  -------------------
[32;1m[Board] [0m    a b c d e f g h
[32;1m[Board] [0m
[32;1m[Referee] [0mThis is the turn of the White player...
Input file: championship/lizzie-iii-bbd/history.csv
Output file: championship/lizzie-iii-bbd/move.csv
Turn of: white
Succesful move
d2d4
8 | R N B Q K B N R 
7 | P P P P P P P P 
6 | _ _ _ _ _ _ _ _ 
5 | _ _ _ _ _ _ _ _ 
4 | _ _ _ P _ _ _ _ 
3 | _ _ _ _ _ _ _ _ 
2 | P P P _ P P P P 
1 | R N B Q K B N R 
-------------------
  | A B C D E F G H 

Turn of: black
Succesful move
g8f6
8 | R N B Q K B _ R 
7 | P P P P P P P P 
6 | _ _ _ _ _ N _ _ 
5 | _ _ _ _ _ _ _ _ 
4 | _ _ _ P _ _ _ _ 
3 | _ _ _ _ _ _ _ _ 
2 | P P P _ P P P P 
1 | R N B Q K B N R 
-------------------
  | A B C D E F G H 

Turn of: white
Succesful move
d1d2
8 | R N B Q K B _ R 
7 | P P P P P P P P 
6 | _ _ _ _ _ N _ _ 
5 | _ _ _ _ _ _ _ _ 
4 | _ _ _ P _ _ _ _ 
3 | _ _ _ _ _ _ _ _ 
2 | P P P Q P P P P 
1 | R N B _ K B N R 
-------------------
  | A B C D E F G H 

Turn of: black
Succesful move
g7g6
8 | R N B Q K B _ R 
7 | P P P P P P _ P 
6 | _ _ _ _ _ N P _ 
5 | _ _ _ _ _ _ _ _ 
4 | _ _ _ P _ _ _ _ 
3 | _ _ _ _ _ _ _ _ 
2 | P P P Q P P P P 
1 | R N B _ K B N R 
-------------------
  | A B C D E F G H 

Turn of: white
Succesful move
h2h4
8 | R N B Q K B _ R 
7 | P P P P P P _ P 
6 | _ _ _ _ _ N P _ 
5 | _ _ _ _ _ _ _ _ 
4 | _ _ _ P _ _ _ P 
3 | _ _ _ _ _ _ _ _ 
2 | P P P Q P P P _ 
1 | R N B _ K B N R 
-------------------
  | A B C D E F G H 

Turn of: black
Succesful move
f6e4
8 | R N B Q K B _ R 
7 | P P P P P P _ P 
6 | _ _ _ _ _ _ P _ 
5 | _ _ _ _ _ _ _ _ 
4 | _ _ _ P N _ _ P 
3 | _ _ _ _ _ _ _ _ 
2 | P P P Q P P P _ 
1 | R N B _ K B N R 
-------------------
  | A B C D E F G H 

Turn of: white
Succesful move
g2g3
8 | R N B Q K B _ R 
7 | P P P P P P _ P 
6 | _ _ _ _ _ _ P _ 
5 | _ _ _ _ _ _ _ _ 
4 | _ _ _ P N _ _ P 
3 | _ _ _ _ _ _ P _ 
2 | P P P Q P P _ _ 
1 | R N B _ K B N R 
-------------------
  | A B C D E F G H 

Turn of: black
Succesful move
e4d2
8 | R N B Q K B _ R 
7 | P P P P P P _ P 
6 | _ _ _ _ _ _ P _ 
5 | _ _ _ _ _ _ _ _ 
4 | _ _ _ P _ _ _ P 
3 | _ _ _ _ _ _ P _ 
2 | P P P N P P _ _ 
1 | R N B _ K B N R 
-------------------
  | A B C D E F G H 

We are playing as White
Move history:
d2d4
g8f6
d1d2
g7g6
h2h4
f6e4
g2g3
e4d2
8 | R N B Q K B _ R 
7 | P P P P P P _ P 
6 | _ _ _ _ _ _ P _ 
5 | _ _ _ _ _ _ _ _ 
4 | _ _ _ P _ _ _ P 
3 | _ _ _ _ _ _ P _ 
2 | P P P N P P _ _ 
1 | R N B _ K B N R 
-------------------
  | A B C D E F G H 

It is white's turn to play.
AI's move: b1c3
Move written: b1c3
[32;1m[Game] [0mPlayer's error code: 0
[32;1m[Game] [0mChecking move validity...
[32;1m[Board] [0mInitializing board...
[32;1m[Board] [0mLoading history file `championship/lizzie-iii-bbd/history.csv`...
[32;1m[Board] [0mLoaded 8 move(s).
[32;1m[Board] [0mLoading move file `championship/lizzie-iii-bbd/move.csv`...
[32;1m[Board] [0mWhite player is playing b1 to c3.
[32;1m[Board] [0m
[32;1m[Board] [0m    a b c d e f g h 
[32;1m[Board] [0m  -------------------
[32;1m[Board] [0m8 ||[30;1mr[0m|[30;1mk[0m|[30;1mb[0m|[30;1mQ[0m|[30;1mK[0m|[30;1mb[0m|[7;1m [0m|[30;1mr[0m|| 8
[32;1m[Board] [0m  -------------------
[32;1m[Board] [0m7 ||[30;1mp[0m|[30;1mp[0m|[30;1mp[0m|[30;1mp[0m|[30;1mp[0m|[30;1mp[0m| |[30;1mp[0m|| 7
[32;1m[Board] [0m  -------------------
[32;1m[Board] [0m6 ||[7;1m [0m| |[7;1m [0m| |[7;1m [0m| |[30;1mp[0m| || 6
[32;1m[Board] [0m  -------------------
[32;1m[Board] [0m5 || |[7;1m [0m| |[7;1m [0m| |[7;1m [0m| |[7;1m [0m|| 5
[32;1m[Board] [0m  -------------------
[32;1m[Board] [0m4 ||[7;1m [0m| |[7;1m [0m|[0;1mp[0m|[7;1m [0m| |[7;1m [0m|[0;1mp[0m|| 4
[32;1m[Board] [0m  -------------------
[32;1m[Board] [0m3 || |[7;1m [0m|[0;1mk[0m|[7;1m [0m| |[7;1m [0m|[0;1mp[0m|[7;1m [0m|| 3
[32;1m[Board] [0m  -------------------
[32;1m[Board] [0m2 ||[0;1mp[0m|[0;1mp[0m|[0;1mp[0m|[30;1mk[0m|[0;1mp[0m|[0;1mp[0m|[7;1m [0m| || 2
[32;1m[Board] [0m  -------------------
[32;1m[Board] [0m1 ||[0;1mr[0m|[7;1m [0m|[0;1mb[0m|[7;1m [0m|[0;1mK[0m|[0;1mb[0m|[0;1mk[0m|[0;1mr[0m|| 1
[32;1m[Board] [0m  -------------------
[32;1m[Board] [0m    a b c d e f g h
[32;1m[Board] [0m
[32;1m[Referee] [0mThis is the turn of the Black player...
info score 1072 depth 1 nodes 39 time 0
info score 1046 depth 2 nodes 143 time 0
info score 1146 depth 3 nodes 1130 time 2
info score 1031 depth 4 nodes 3880 time 7
info score 1077 depth 5 nodes 22353 time 42
info score 1033 depth 6 nodes 134678 time 265
info score 1065 depth 7 nodes 525771 time 1053
bestmove d2f1
[32;1m[Game] [0mPlayer's error code: 0
[32;1m[Game] [0mChecking move validity...
[32;1m[Board] [0mInitializing board...
[32;1m[Board] [0mLoading history file `championship/lizzie-iii-bbd/history.csv`...
[32;1m[Board] [0mLoaded 9 move(s).
[32;1m[Board] [0mLoading move file `championship/lizzie-iii-bbd/move.csv`...
[32;1m[Board] [0mBlack player is playing d2 to f1.
[32;1m[Board] [0m[5;1mBlack Knight is taking White Bishop.[0m
[32;1m[Board] [0m
[32;1m[Board] [0m    a b c d e f g h 
[32;1m[Board] [0m  -------------------
[32;1m[Board] [0m8 ||[30;1mr[0m|[30;1mk[0m|[30;1mb[0m|[30;1mQ[0m|[30;1mK[0m|[30;1mb[0m|[7;1m [0m|[30;1mr[0m|| 8
[32;1m[Board] [0m  -------------------
[32;1m[Board] [0m7 ||[30;1mp[0m|[30;1mp[0m|[30;1mp[0m|[30;1mp[0m|[30;1mp[0m|[30;1mp[0m| |[30;1mp[0m|| 7
[32;1m[Board] [0m  -------------------
[32;1m[Board] [0m6 ||[7;1m [0m| |[7;1m [0m| |[7;1m [0m| |[30;1mp[0m| || 6
[32;1m[Board] [0m  -------------------
[32;1m[Board] [0m5 || |[7;1m [0m| |[7;1m [0m| |[7;1m [0m| |[7;1m [0m|| 5
[32;1m[Board] [0m  -------------------
[32;1m[Board] [0m4 ||[7;1m [0m| |[7;1m [0m|[0;1mp[0m|[7;1m [0m| |[7;1m [0m|[0;1mp[0m|| 4
[32;1m[Board] [0m  -------------------
[32;1m[Board] [0m3 || |[7;1m [0m|[0;1mk[0m|[7;1m [0m| |[7;1m [0m|[0;1mp[0m|[7;1m [0m|| 3
[32;1m[Board] [0m  -------------------
[32;1m[Board] [0m2 ||[0;1mp[0m|[0;1mp[0m|[0;1mp[0m| |[0;1mp[0m|[0;1mp[0m|[7;1m [0m| || 2
[32;1m[Board] [0m  -------------------
[32;1m[Board] [0m1 ||[0;1mr[0m|[7;1m [0m|[0;1mb[0m|[7;1m [0m|[0;1mK[0m|[30;1mk[0m|[0;1mk[0m|[0;1mr[0m|| 1
[32;1m[Board] [0m  -------------------
[32;1m[Board] [0m    a b c d e f g h
[32;1m[Board] [0m
[32;1m[Referee] [0mThis is the turn of the White player...
Input file: championship/lizzie-iii-bbd/history.csv
Output file: championship/lizzie-iii-bbd/move.csv
Turn of: white
Succesful move
d2d4
8 | R N B Q K B N R 
7 | P P P P P P P P 
6 | _ _ _ _ _ _ _ _ 
5 | _ _ _ _ _ _ _ _ 
4 | _ _ _ P _ _ _ _ 
3 | _ _ _ _ _ _ _ _ 
2 | P P P _ P P P P 
1 | R N B Q K B N R 
-------------------
  | A B C D E F G H 

Turn of: black
Succesful move
g8f6
8 | R N B Q K B _ R 
7 | P P P P P P P P 
6 | _ _ _ _ _ N _ _ 
5 | _ _ _ _ _ _ _ _ 
4 | _ _ _ P _ _ _ _ 
3 | _ _ _ _ _ _ _ _ 
2 | P P P _ P P P P 
1 | R N B Q K B N R 
-------------------
  | A B C D E F G H 

Turn of: white
Succesful move
d1d2
8 | R N B Q K B _ R 
7 | P P P P P P P P 
6 | _ _ _ _ _ N _ _ 
5 | _ _ _ _ _ _ _ _ 
4 | _ _ _ P _ _ _ _ 
3 | _ _ _ _ _ _ _ _ 
2 | P P P Q P P P P 
1 | R N B _ K B N R 
-------------------
  | A B C D E F G H 

Turn of: black
Succesful move
g7g6
8 | R N B Q K B _ R 
7 | P P P P P P _ P 
6 | _ _ _ _ _ N P _ 
5 | _ _ _ _ _ _ _ _ 
4 | _ _ _ P _ _ _ _ 
3 | _ _ _ _ _ _ _ _ 
2 | P P P Q P P P P 
1 | R N B _ K B N R 
-------------------
  | A B C D E F G H 

Turn of: white
Succesful move
h2h4
8 | R N B Q K B _ R 
7 | P P P P P P _ P 
6 | _ _ _ _ _ N P _ 
5 | _ _ _ _ _ _ _ _ 
4 | _ _ _ P _ _ _ P 
3 | _ _ _ _ _ _ _ _ 
2 | P P P Q P P P _ 
1 | R N B _ K B N R 
-------------------
  | A B C D E F G H 

Turn of: black
Succesful move
f6e4
8 | R N B Q K B _ R 
7 | P P P P P P _ P 
6 | _ _ _ _ _ _ P _ 
5 | _ _ _ _ _ _ _ _ 
4 | _ _ _ P N _ _ P 
3 | _ _ _ _ _ _ _ _ 
2 | P P P Q P P P _ 
1 | R N B _ K B N R 
-------------------
  | A B C D E F G H 

Turn of: white
Succesful move
g2g3
8 | R N B Q K B _ R 
7 | P P P P P P _ P 
6 | _ _ _ _ _ _ P _ 
5 | _ _ _ _ _ _ _ _ 
4 | _ _ _ P N _ _ P 
3 | _ _ _ _ _ _ P _ 
2 | P P P Q P P _ _ 
1 | R N B _ K B N R 
-------------------
  | A B C D E F G H 

Turn of: black
Succesful move
e4d2
8 | R N B Q K B _ R 
7 | P P P P P P _ P 
6 | _ _ _ _ _ _ P _ 
5 | _ _ _ _ _ _ _ _ 
4 | _ _ _ P _ _ _ P 
3 | _ _ _ _ _ _ P _ 
2 | P P P N P P _ _ 
1 | R N B _ K B N R 
-------------------
  | A B C D E F G H 

Turn of: white
Succesful move
b1c3
8 | R N B Q K B _ R 
7 | P P P P P P _ P 
6 | _ _ _ _ _ _ P _ 
5 | _ _ _ _ _ _ _ _ 
4 | _ _ _ P _ _ _ P 
3 | _ _ N _ _ _ P _ 
2 | P P P N P P _ _ 
1 | R _ B _ K B N R 
-------------------
  | A B C D E F G H 

Turn of: black
Succesful move
d2f1
8 | R N B Q K B _ R 
7 | P P P P P P _ P 
6 | _ _ _ _ _ _ P _ 
5 | _ _ _ _ _ _ _ _ 
4 | _ _ _ P _ _ _ P 
3 | _ _ N _ _ _ P _ 
2 | P P P _ P P _ _ 
1 | R _ B _ K N N R 
-------------------
  | A B C D E F G H 

We are playing as White
Move history:
d2d4
g8f6
d1d2
g7g6
h2h4
f6e4
g2g3
e4d2
b1c3
d2f1
8 | R N B Q K B _ R 
7 | P P P P P P _ P 
6 | _ _ _ _ _ _ P _ 
5 | _ _ _ _ _ _ _ _ 
4 | _ _ _ P _ _ _ P 
3 | _ _ N _ _ _ P _ 
2 | P P P _ P P _ _ 
1 | R _ B _ K N N R 
-------------------
  | A B C D E F G H 

It is white's turn to play.
AI's move: c1e3
Move written: c1e3
[32;1m[Game] [0mPlayer's error code: 0
[32;1m[Game] [0mChecking move validity...
[32;1m[Board] [0mInitializing board...
[32;1m[Board] [0mLoading history file `championship/lizzie-iii-bbd/history.csv`...
[32;1m[Board] [0mLoaded 10 move(s).
[32;1m[Board] [0mLoading move file `championship/lizzie-iii-bbd/move.csv`...
[32;1m[Board] [0mWhite player is playing c1 to e3.
[32;1m[Board] [0m
[32;1m[Board] [0m    a b c d e f g h 
[32;1m[Board] [0m  -------------------
[32;1m[Board] [0m8 ||[30;1mr[0m|[30;1mk[0m|[30;1mb[0m|[30;1mQ[0m|[30;1mK[0m|[30;1mb[0m|[7;1m [0m|[30;1mr[0m|| 8
[32;1m[Board] [0m  -------------------
[32;1m[Board] [0m7 ||[30;1mp[0m|[30;1mp[0m|[30;1mp[0m|[30;1mp[0m|[30;1mp[0m|[30;1mp[0m| |[30;1mp[0m|| 7
[32;1m[Board] [0m  -------------------
[32;1m[Board] [0m6 ||[7;1m [0m| |[7;1m [0m| |[7;1m [0m| |[30;1mp[0m| || 6
[32;1m[Board] [0m  -------------------
[32;1m[Board] [0m5 || |[7;1m [0m| |[7;1m [0m| |[7;1m [0m| |[7;1m [0m|| 5
[32;1m[Board] [0m  -------------------
[32;1m[Board] [0m4 ||[7;1m [0m| |[7;1m [0m|[0;1mp[0m|[7;1m [0m| |[7;1m [0m|[0;1mp[0m|| 4
[32;1m[Board] [0m  -------------------
[32;1m[Board] [0m3 || |[7;1m [0m|[0;1mk[0m|[7;1m [0m|[0;1mb[0m|[7;1m [0m|[0;1mp[0m|[7;1m [0m|| 3
[32;1m[Board] [0m  -------------------
[32;1m[Board] [0m2 ||[0;1mp[0m|[0;1mp[0m|[0;1mp[0m| |[0;1mp[0m|[0;1mp[0m|[7;1m [0m| || 2
[32;1m[Board] [0m  -------------------
[32;1m[Board] [0m1 ||[0;1mr[0m|[7;1m [0m| |[7;1m [0m|[0;1mK[0m|[30;1mk[0m|[0;1mk[0m|[0;1mr[0m|| 1
[32;1m[Board] [0m  -------------------
[32;1m[Board] [0m    a b c d e f g h
[32;1m[Board] [0m
[32;1m[Referee] [0mThis is the turn of the Black player...
info score 1430 depth 1 nodes 26 time 0
info score 1430 depth 2 nodes 106 time 0
info score 1533 depth 3 nodes 787 time 1
info score 1416 depth 4 nodes 2651 time 5
info score 1506 depth 5 nodes 18450 time 34
info score 1397 depth 6 nodes 69354 time 137
info score 1422 depth 7 nodes 390821 time 755
bestmove f1e3
[32;1m[Game] [0mPlayer's error code: 0
[32;1m[Game] [0mChecking move validity...
[32;1m[Board] [0mInitializing board...
[32;1m[Board] [0mLoading history file `championship/lizzie-iii-bbd/history.csv`...
[32;1m[Board] [0mLoaded 11 move(s).
[32;1m[Board] [0mLoading move file `championship/lizzie-iii-bbd/move.csv`...
[32;1m[Board] [0mBlack player is playing f1 to e3.
[32;1m[Board] [0m[5;1mBlack Knight is taking White Bishop.[0m
[32;1m[Board] [0m
[32;1m[Board] [0m    a b c d e f g h 
[32;1m[Board] [0m  -------------------
[32;1m[Board] [0m8 ||[30;1mr[0m|[30;1mk[0m|[30;1mb[0m|[30;1mQ[0m|[30;1mK[0m|[30;1mb[0m|[7;1m [0m|[30;1mr[0m|| 8
[32;1m[Board] [0m  -------------------
[32;1m[Board] [0m7 ||[30;1mp[0m|[30;1mp[0m|[30;1mp[0m|[30;1mp[0m|[30;1mp[0m|[30;1mp[0m| |[30;1mp[0m|| 7
[32;1m[Board] [0m  -------------------
[32;1m[Board] [0m6 ||[7;1m [0m| |[7;1m [0m| |[7;1m [0m| |[30;1mp[0m| || 6
[32;1m[Board] [0m  -------------------
[32;1m[Board] [0m5 || |[7;1m [0m| |[7;1m [0m| |[7;1m [0m| |[7;1m [0m|| 5
[32;1m[Board] [0m  -------------------
[32;1m[Board] [0m4 ||[7;1m [0m| |[7;1m [0m|[0;1mp[0m|[7;1m [0m| |[7;1m [0m|[0;1mp[0m|| 4
[32;1m[Board] [0m  -------------------
[32;1m[Board] [0m3 || |[7;1m [0m|[0;1mk[0m|[7;1m [0m|[30;1mk[0m|[7;1m [0m|[0;1mp[0m|[7;1m [0m|| 3
[32;1m[Board] [0m  -------------------
[32;1m[Board] [0m2 ||[0;1mp[0m|[0;1mp[0m|[0;1mp[0m| |[0;1mp[0m|[0;1mp[0m|[7;1m [0m| || 2
[32;1m[Board] [0m  -------------------
[32;1m[Board] [0m1 ||[0;1mr[0m|[7;1m [0m| |[7;1m [0m|[0;1mK[0m|[7;1m [0m|[0;1mk[0m|[0;1mr[0m|| 1
[32;1m[Board] [0m  -------------------
[32;1m[Board] [0m    a b c d e f g h
[32;1m[Board] [0m
[32;1m[Referee] [0mThis is the turn of the White player...
Input file: championship/lizzie-iii-bbd/history.csv
Output file: championship/lizzie-iii-bbd/move.csv
Turn of: white
Succesful move
d2d4
8 | R N B Q K B N R 
7 | P P P P P P P P 
6 | _ _ _ _ _ _ _ _ 
5 | _ _ _ _ _ _ _ _ 
4 | _ _ _ P _ _ _ _ 
3 | _ _ _ _ _ _ _ _ 
2 | P P P _ P P P P 
1 | R N B Q K B N R 
-------------------
  | A B C D E F G H 

Turn of: black
Succesful move
g8f6
8 | R N B Q K B _ R 
7 | P P P P P P P P 
6 | _ _ _ _ _ N _ _ 
5 | _ _ _ _ _ _ _ _ 
4 | _ _ _ P _ _ _ _ 
3 | _ _ _ _ _ _ _ _ 
2 | P P P _ P P P P 
1 | R N B Q K B N R 
-------------------
  | A B C D E F G H 

Turn of: white
Succesful move
d1d2
8 | R N B Q K B _ R 
7 | P P P P P P P P 
6 | _ _ _ _ _ N _ _ 
5 | _ _ _ _ _ _ _ _ 
4 | _ _ _ P _ _ _ _ 
3 | _ _ _ _ _ _ _ _ 
2 | P P P Q P P P P 
1 | R N B _ K B N R 
-------------------
  | A B C D E F G H 

Turn of: black
Succesful move
g7g6
8 | R N B Q K B _ R 
7 | P P P P P P _ P 
6 | _ _ _ _ _ N P _ 
5 | _ _ _ _ _ _ _ _ 
4 | _ _ _ P _ _ _ _ 
3 | _ _ _ _ _ _ _ _ 
2 | P P P Q P P P P 
1 | R N B _ K B N R 
-------------------
  | A B C D E F G H 

Turn of: white
Succesful move
h2h4
8 | R N B Q K B _ R 
7 | P P P P P P _ P 
6 | _ _ _ _ _ N P _ 
5 | _ _ _ _ _ _ _ _ 
4 | _ _ _ P _ _ _ P 
3 | _ _ _ _ _ _ _ _ 
2 | P P P Q P P P _ 
1 | R N B _ K B N R 
-------------------
  | A B C D E F G H 

Turn of: black
Succesful move
f6e4
8 | R N B Q K B _ R 
7 | P P P P P P _ P 
6 | _ _ _ _ _ _ P _ 
5 | _ _ _ _ _ _ _ _ 
4 | _ _ _ P N _ _ P 
3 | _ _ _ _ _ _ _ _ 
2 | P P P Q P P P _ 
1 | R N B _ K B N R 
-------------------
  | A B C D E F G H 

Turn of: white
Succesful move
g2g3
8 | R N B Q K B _ R 
7 | P P P P P P _ P 
6 | _ _ _ _ _ _ P _ 
5 | _ _ _ _ _ _ _ _ 
4 | _ _ _ P N _ _ P 
3 | _ _ _ _ _ _ P _ 
2 | P P P Q P P _ _ 
1 | R N B _ K B N R 
-------------------
  | A B C D E F G H 

Turn of: black
Succesful move
e4d2
8 | R N B Q K B _ R 
7 | P P P P P P _ P 
6 | _ _ _ _ _ _ P _ 
5 | _ _ _ _ _ _ _ _ 
4 | _ _ _ P _ _ _ P 
3 | _ _ _ _ _ _ P _ 
2 | P P P N P P _ _ 
1 | R N B _ K B N R 
-------------------
  | A B C D E F G H 

Turn of: white
Succesful move
b1c3
8 | R N B Q K B _ R 
7 | P P P P P P _ P 
6 | _ _ _ _ _ _ P _ 
5 | _ _ _ _ _ _ _ _ 
4 | _ _ _ P _ _ _ P 
3 | _ _ N _ _ _ P _ 
2 | P P P N P P _ _ 
1 | R _ B _ K B N R 
-------------------
  | A B C D E F G H 

Turn of: black
Succesful move
d2f1
8 | R N B Q K B _ R 
7 | P P P P P P _ P 
6 | _ _ _ _ _ _ P _ 
5 | _ _ _ _ _ _ _ _ 
4 | _ _ _ P _ _ _ P 
3 | _ _ N _ _ _ P _ 
2 | P P P _ P P _ _ 
1 | R _ B _ K N N R 
-------------------
  | A B C D E F G H 

Turn of: white
Succesful move
c1e3
8 | R N B Q K B _ R 
7 | P P P P P P _ P 
6 | _ _ _ _ _ _ P _ 
5 | _ _ _ _ _ _ _ _ 
4 | _ _ _ P _ _ _ P 
3 | _ _ N _ B _ P _ 
2 | P P P _ P P _ _ 
1 | R _ _ _ K N N R 
-------------------
  | A B C D E F G H 

Turn of: black
Succesful move
f1e3
8 | R N B Q K B _ R 
7 | P P P P P P _ P 
6 | _ _ _ _ _ _ P _ 
5 | _ _ _ _ _ _ _ _ 
4 | _ _ _ P _ _ _ P 
3 | _ _ N _ N _ P _ 
2 | P P P _ P P _ _ 
1 | R _ _ _ K _ N R 
-------------------
  | A B C D E F G H 

We are playing as White
Move history:
d2d4
g8f6
d1d2
g7g6
h2h4
f6e4
g2g3
e4d2
b1c3
d2f1
c1e3
f1e3
8 | R N B Q K B _ R 
7 | P P P P P P _ P 
6 | _ _ _ _ _ _ P _ 
5 | _ _ _ _ _ _ _ _ 
4 | _ _ _ P _ _ _ P 
3 | _ _ N _ N _ P _ 
2 | P P P _ P P _ _ 
1 | R _ _ _ K _ N R 
-------------------
  | A B C D E F G H 

It is white's turn to play.
AI's move: c3d1
Move written: c3d1
[32;1m[Game] [0mPlayer's error code: 0
[32;1m[Game] [0mChecking move validity...
[32;1m[Board] [0mInitializing board...
[32;1m[Board] [0mLoading history file `championship/lizzie-iii-bbd/history.csv`...
[32;1m[Board] [0mLoaded 12 move(s).
[32;1m[Board] [0mLoading move file `championship/lizzie-iii-bbd/move.csv`...
[32;1m[Board] [0mWhite player is playing c3 to d1.
[32;1m[Board] [0m
[32;1m[Board] [0m    a b c d e f g h 
[32;1m[Board] [0m  -------------------
[32;1m[Board] [0m8 ||[30;1mr[0m|[30;1mk[0m|[30;1mb[0m|[30;1mQ[0m|[30;1mK[0m|[30;1mb[0m|[7;1m [0m|[30;1mr[0m|| 8
[32;1m[Board] [0m  -------------------
[32;1m[Board] [0m7 ||[30;1mp[0m|[30;1mp[0m|[30;1mp[0m|[30;1mp[0m|[30;1mp[0m|[30;1mp[0m| |[30;1mp[0m|| 7
[32;1m[Board] [0m  -------------------
[32;1m[Board] [0m6 ||[7;1m [0m| |[7;1m [0m| |[7;1m [0m| |[30;1mp[0m| || 6
[32;1m[Board] [0m  -------------------
[32;1m[Board] [0m5 || |[7;1m [0m| |[7;1m [0m| |[7;1m [0m| |[7;1m [0m|| 5
[32;1m[Board] [0m  -------------------
[32;1m[Board] [0m4 ||[7;1m [0m| |[7;1m [0m|[0;1mp[0m|[7;1m [0m| |[7;1m [0m|[0;1mp[0m|| 4
[32;1m[Board] [0m  -------------------
[32;1m[Board] [0m3 || |[7;1m [0m| |[7;1m [0m|[30;1mk[0m|[7;1m [0m|[0;1mp[0m|[7;1m [0m|| 3
[32;1m[Board] [0m  -------------------
[32;1m[Board] [0m2 ||[0;1mp[0m|[0;1mp[0m|[0;1mp[0m| |[0;1mp[0m|[0;1mp[0m|[7;1m [0m| || 2
[32;1m[Board] [0m  -------------------
[32;1m[Board] [0m1 ||[0;1mr[0m|[7;1m [0m| |[0;1mk[0m|[0;1mK[0m|[7;1m [0m|[0;1mk[0m|[0;1mr[0m|| 1
[32;1m[Board] [0m  -------------------
[32;1m[Board] [0m    a b c d e f g h
[32;1m[Board] [0m
[32;1m[Referee] [0mThis is the turn of the Black player...
info score 1909 depth 1 nodes 32 time 0
info score 2337 depth 2 nodes 136 time 0
info score 2337 depth 3 nodes 971 time 2
info score 2223 depth 4 nodes 3595 time 7
info score 2323 depth 5 nodes 23641 time 45
info score 2236 depth 6 nodes 90630 time 174
info score 2236 depth 7 nodes 644347 time 1247
bestmove e3d1
[32;1m[Game] [0mPlayer's error code: 0
[32;1m[Game] [0mChecking move validity...
[32;1m[Board] [0mInitializing board...
[32;1m[Board] [0mLoading history file `championship/lizzie-iii-bbd/history.csv`...
[32;1m[Board] [0mLoaded 13 move(s).
[32;1m[Board] [0mLoading move file `championship/lizzie-iii-bbd/move.csv`...
[32;1m[Board] [0mBlack player is playing e3 to d1.
[32;1m[Board] [0m[5;1mBlack Knight is taking White Knight.[0m
[32;1m[Board] [0m
[32;1m[Board] [0m    a b c d e f g h 
[32;1m[Board] [0m  -------------------
[32;1m[Board] [0m8 ||[30;1mr[0m|[30;1mk[0m|[30;1mb[0m|[30;1mQ[0m|[30;1mK[0m|[30;1mb[0m|[7;1m [0m|[30;1mr[0m|| 8
[32;1m[Board] [0m  -------------------
[32;1m[Board] [0m7 ||[30;1mp[0m|[30;1mp[0m|[30;1mp[0m|[30;1mp[0m|[30;1mp[0m|[30;1mp[0m| |[30;1mp[0m|| 7
[32;1m[Board] [0m  -------------------
[32;1m[Board] [0m6 ||[7;1m [0m| |[7;1m [0m| |[7;1m [0m| |[30;1mp[0m| || 6
[32;1m[Board] [0m  -------------------
[32;1m[Board] [0m5 || |[7;1m [0m| |[7;1m [0m| |[7;1m [0m| |[7;1m [0m|| 5
[32;1m[Board] [0m  -------------------
[32;1m[Board] [0m4 ||[7;1m [0m| |[7;1m [0m|[0;1mp[0m|[7;1m [0m| |[7;1m [0m|[0;1mp[0m|| 4
[32;1m[Board] [0m  -------------------
[32;1m[Board] [0m3 || |[7;1m [0m| |[7;1m [0m| |[7;1m [0m|[0;1mp[0m|[7;1m [0m|| 3
[32;1m[Board] [0m  -------------------
[32;1m[Board] [0m2 ||[0;1mp[0m|[0;1mp[0m|[0;1mp[0m| |[0;1mp[0m|[0;1mp[0m|[7;1m [0m| || 2
[32;1m[Board] [0m  -------------------
[32;1m[Board] [0m1 ||[0;1mr[0m|[7;1m [0m| |[30;1mk[0m|[0;1mK[0m|[7;1m [0m|[0;1mk[0m|[0;1mr[0m|| 1
[32;1m[Board] [0m  -------------------
[32;1m[Board] [0m    a b c d e f g h
[32;1m[Board] [0m
[32;1m[Referee] [0mThis is the turn of the White player...
Input file: championship/lizzie-iii-bbd/history.csv
Output file: championship/lizzie-iii-bbd/move.csv
Turn of: white
Succesful move
d2d4
8 | R N B Q K B N R 
7 | P P P P P P P P 
6 | _ _ _ _ _ _ _ _ 
5 | _ _ _ _ _ _ _ _ 
4 | _ _ _ P _ _ _ _ 
3 | _ _ _ _ _ _ _ _ 
2 | P P P _ P P P P 
1 | R N B Q K B N R 
-------------------
  | A B C D E F G H 

Turn of: black
Succesful move
g8f6
8 | R N B Q K B _ R 
7 | P P P P P P P P 
6 | _ _ _ _ _ N _ _ 
5 | _ _ _ _ _ _ _ _ 
4 | _ _ _ P _ _ _ _ 
3 | _ _ _ _ _ _ _ _ 
2 | P P P _ P P P P 
1 | R N B Q K B N R 
-------------------
  | A B C D E F G H 

Turn of: white
Succesful move
d1d2
8 | R N B Q K B _ R 
7 | P P P P P P P P 
6 | _ _ _ _ _ N _ _ 
5 | _ _ _ _ _ _ _ _ 
4 | _ _ _ P _ _ _ _ 
3 | _ _ _ _ _ _ _ _ 
2 | P P P Q P P P P 
1 | R N B _ K B N R 
-------------------
  | A B C D E F G H 

Turn of: black
Succesful move
g7g6
8 | R N B Q K B _ R 
7 | P P P P P P _ P 
6 | _ _ _ _ _ N P _ 
5 | _ _ _ _ _ _ _ _ 
4 | _ _ _ P _ _ _ _ 
3 | _ _ _ _ _ _ _ _ 
2 | P P P Q P P P P 
1 | R N B _ K B N R 
-------------------
  | A B C D E F G H 

Turn of: white
Succesful move
h2h4
8 | R N B Q K B _ R 
7 | P P P P P P _ P 
6 | _ _ _ _ _ N P _ 
5 | _ _ _ _ _ _ _ _ 
4 | _ _ _ P _ _ _ P 
3 | _ _ _ _ _ _ _ _ 
2 | P P P Q P P P _ 
1 | R N B _ K B N R 
-------------------
  | A B C D E F G H 

Turn of: black
Succesful move
f6e4
8 | R N B Q K B _ R 
7 | P P P P P P _ P 
6 | _ _ _ _ _ _ P _ 
5 | _ _ _ _ _ _ _ _ 
4 | _ _ _ P N _ _ P 
3 | _ _ _ _ _ _ _ _ 
2 | P P P Q P P P _ 
1 | R N B _ K B N R 
-------------------
  | A B C D E F G H 

Turn of: white
Succesful move
g2g3
8 | R N B Q K B _ R 
7 | P P P P P P _ P 
6 | _ _ _ _ _ _ P _ 
5 | _ _ _ _ _ _ _ _ 
4 | _ _ _ P N _ _ P 
3 | _ _ _ _ _ _ P _ 
2 | P P P Q P P _ _ 
1 | R N B _ K B N R 
-------------------
  | A B C D E F G H 

Turn of: black
Succesful move
e4d2
8 | R N B Q K B _ R 
7 | P P P P P P _ P 
6 | _ _ _ _ _ _ P _ 
5 | _ _ _ _ _ _ _ _ 
4 | _ _ _ P _ _ _ P 
3 | _ _ _ _ _ _ P _ 
2 | P P P N P P _ _ 
1 | R N B _ K B N R 
-------------------
  | A B C D E F G H 

Turn of: white
Succesful move
b1c3
8 | R N B Q K B _ R 
7 | P P P P P P _ P 
6 | _ _ _ _ _ _ P _ 
5 | _ _ _ _ _ _ _ _ 
4 | _ _ _ P _ _ _ P 
3 | _ _ N _ _ _ P _ 
2 | P P P N P P _ _ 
1 | R _ B _ K B N R 
-------------------
  | A B C D E F G H 

Turn of: black
Succesful move
d2f1
8 | R N B Q K B _ R 
7 | P P P P P P _ P 
6 | _ _ _ _ _ _ P _ 
5 | _ _ _ _ _ _ _ _ 
4 | _ _ _ P _ _ _ P 
3 | _ _ N _ _ _ P _ 
2 | P P P _ P P _ _ 
1 | R _ B _ K N N R 
-------------------
  | A B C D E F G H 

Turn of: white
Succesful move
c1e3
8 | R N B Q K B _ R 
7 | P P P P P P _ P 
6 | _ _ _ _ _ _ P _ 
5 | _ _ _ _ _ _ _ _ 
4 | _ _ _ P _ _ _ P 
3 | _ _ N _ B _ P _ 
2 | P P P _ P P _ _ 
1 | R _ _ _ K N N R 
-------------------
  | A B C D E F G H 

Turn of: black
Succesful move
f1e3
8 | R N B Q K B _ R 
7 | P P P P P P _ P 
6 | _ _ _ _ _ _ P _ 
5 | _ _ _ _ _ _ _ _ 
4 | _ _ _ P _ _ _ P 
3 | _ _ N _ N _ P _ 
2 | P P P _ P P _ _ 
1 | R _ _ _ K _ N R 
-------------------
  | A B C D E F G H 

Turn of: white
Succesful move
c3d1
8 | R N B Q K B _ R 
7 | P P P P P P _ P 
6 | _ _ _ _ _ _ P _ 
5 | _ _ _ _ _ _ _ _ 
4 | _ _ _ P _ _ _ P 
3 | _ _ _ _ N _ P _ 
2 | P P P _ P P _ _ 
1 | R _ _ N K _ N R 
-------------------
  | A B C D E F G H 

Turn of: black
Succesful move
e3d1
8 | R N B Q K B _ R 
7 | P P P P P P _ P 
6 | _ _ _ _ _ _ P _ 
5 | _ _ _ _ _ _ _ _ 
4 | _ _ _ P _ _ _ P 
3 | _ _ _ _ _ _ P _ 
2 | P P P _ P P _ _ 
1 | R _ _ N K _ N R 
-------------------
  | A B C D E F G H 

We are playing as White
Move history:
d2d4
g8f6
d1d2
g7g6
h2h4
f6e4
g2g3
e4d2
b1c3
d2f1
c1e3
f1e3
c3d1
e3d1
8 | R N B Q K B _ R 
7 | P P P P P P _ P 
6 | _ _ _ _ _ _ P _ 
5 | _ _ _ _ _ _ _ _ 
4 | _ _ _ P _ _ _ P 
3 | _ _ _ _ _ _ P _ 
2 | P P P _ P P _ _ 
1 | R _ _ N K _ N R 
-------------------
  | A B C D E F G H 

It is white's turn to play.
AI's move: a2a4
Move written: a2a4
[32;1m[Game] [0mPlayer's error code: 0
[32;1m[Game] [0mChecking move validity...
[32;1m[Board] [0mInitializing board...
[32;1m[Board] [0mLoading history file `championship/lizzie-iii-bbd/history.csv`...
[32;1m[Board] [0mLoaded 14 move(s).
[32;1m[Board] [0mLoading move file `championship/lizzie-iii-bbd/move.csv`...
[32;1m[Board] [0mWhite player is playing a2 to a4.
[32;1m[Board] [0m
[32;1m[Board] [0m    a b c d e f g h 
[32;1m[Board] [0m  -------------------
[32;1m[Board] [0m8 ||[30;1mr[0m|[30;1mk[0m|[30;1mb[0m|[30;1mQ[0m|[30;1mK[0m|[30;1mb[0m|[7;1m [0m|[30;1mr[0m|| 8
[32;1m[Board] [0m  -------------------
[32;1m[Board] [0m7 ||[30;1mp[0m|[30;1mp[0m|[30;1mp[0m|[30;1mp[0m|[30;1mp[0m|[30;1mp[0m| |[30;1mp[0m|| 7
[32;1m[Board] [0m  -------------------
[32;1m[Board] [0m6 ||[7;1m [0m| |[7;1m [0m| |[7;1m [0m| |[30;1mp[0m| || 6
[32;1m[Board] [0m  -------------------
[32;1m[Board] [0m5 || |[7;1m [0m| |[7;1m [0m| |[7;1m [0m| |[7;1m [0m|| 5
[32;1m[Board] [0m  -------------------
[32;1m[Board] [0m4 ||[0;1mp[0m| |[7;1m [0m|[0;1mp[0m|[7;1m [0m| |[7;1m [0m|[0;1mp[0m|| 4
[32;1m[Board] [0m  -------------------
[32;1m[Board] [0m3 || |[7;1m [0m| |[7;1m [0m| |[7;1m [0m|[0;1mp[0m|[7;1m [0m|| 3
[32;1m[Board] [0m  -------------------
[32;1m[Board] [0m2 ||[7;1m [0m|[0;1mp[0m|[0;1mp[0m| |[0;1mp[0m|[0;1mp[0m|[7;1m [0m| || 2
[32;1m[Board] [0m  -------------------
[32;1m[Board] [0m1 ||[0;1mr[0m|[7;1m [0m| |[30;1mk[0m|[0;1mK[0m|[7;1m [0m|[0;1mk[0m|[0;1mr[0m|| 1
[32;1m[Board] [0m  -------------------
[32;1m[Board] [0m    a b c d e f g h
[32;1m[Board] [0m
[32;1m[Referee] [0mThis is the turn of the Black player...
info score 2345 depth 1 nodes 26 time 0
info score 2227 depth 2 nodes 115 time 0
info score 2330 depth 3 nodes 1020 time 2
info score 2287 depth 4 nodes 3614 time 7
info score 2312 depth 5 nodes 20994 time 40
info score 2290 depth 6 nodes 87456 time 168
info score 2333 depth 7 nodes 522244 time 1000
bestmove d1b2
[32;1m[Game] [0mPlayer's error code: 0
[32;1m[Game] [0mChecking move validity...
[32;1m[Board] [0mInitializing board...
[32;1m[Board] [0mLoading history file `championship/lizzie-iii-bbd/history.csv`...
[32;1m[Board] [0mLoaded 15 move(s).
[32;1m[Board] [0mLoading move file `championship/lizzie-iii-bbd/move.csv`...
[32;1m[Board] [0mBlack player is playing d1 to b2.
[32;1m[Board] [0m[5;1mBlack Knight is taking White Pawn.[0m
[32;1m[Board] [0m
[32;1m[Board] [0m    a b c d e f g h 
[32;1m[Board] [0m  -------------------
[32;1m[Board] [0m8 ||[30;1mr[0m|[30;1mk[0m|[30;1mb[0m|[30;1mQ[0m|[30;1mK[0m|[30;1mb[0m|[7;1m [0m|[30;1mr[0m|| 8
[32;1m[Board] [0m  -------------------
[32;1m[Board] [0m7 ||[30;1mp[0m|[30;1mp[0m|[30;1mp[0m|[30;1mp[0m|[30;1mp[0m|[30;1mp[0m| |[30;1mp[0m|| 7
[32;1m[Board] [0m  -------------------
[32;1m[Board] [0m6 ||[7;1m [0m| |[7;1m [0m| |[7;1m [0m| |[30;1mp[0m| || 6
[32;1m[Board] [0m  -------------------
[32;1m[Board] [0m5 || |[7;1m [0m| |[7;1m [0m| |[7;1m [0m| |[7;1m [0m|| 5
[32;1m[Board] [0m  -------------------
[32;1m[Board] [0m4 ||[0;1mp[0m| |[7;1m [0m|[0;1mp[0m|[7;1m [0m| |[7;1m [0m|[0;1mp[0m|| 4
[32;1m[Board] [0m  -------------------
[32;1m[Board] [0m3 || |[7;1m [0m| |[7;1m [0m| |[7;1m [0m|[0;1mp[0m|[7;1m [0m|| 3
[32;1m[Board] [0m  -------------------
[32;1m[Board] [0m2 ||[7;1m [0m|[30;1mk[0m|[0;1mp[0m| |[0;1mp[0m|[0;1mp[0m|[7;1m [0m| || 2
[32;1m[Board] [0m  -------------------
[32;1m[Board] [0m1 ||[0;1mr[0m|[7;1m [0m| |[7;1m [0m|[0;1mK[0m|[7;1m [0m|[0;1mk[0m|[0;1mr[0m|| 1
[32;1m[Board] [0m  -------------------
[32;1m[Board] [0m    a b c d e f g h
[32;1m[Board] [0m
[32;1m[Referee] [0mThis is the turn of the White player...
Input file: championship/lizzie-iii-bbd/history.csv
Output file: championship/lizzie-iii-bbd/move.csv
Turn of: white
Succesful move
d2d4
8 | R N B Q K B N R 
7 | P P P P P P P P 
6 | _ _ _ _ _ _ _ _ 
5 | _ _ _ _ _ _ _ _ 
4 | _ _ _ P _ _ _ _ 
3 | _ _ _ _ _ _ _ _ 
2 | P P P _ P P P P 
1 | R N B Q K B N R 
-------------------
  | A B C D E F G H 

Turn of: black
Succesful move
g8f6
8 | R N B Q K B _ R 
7 | P P P P P P P P 
6 | _ _ _ _ _ N _ _ 
5 | _ _ _ _ _ _ _ _ 
4 | _ _ _ P _ _ _ _ 
3 | _ _ _ _ _ _ _ _ 
2 | P P P _ P P P P 
1 | R N B Q K B N R 
-------------------
  | A B C D E F G H 

Turn of: white
Succesful move
d1d2
8 | R N B Q K B _ R 
7 | P P P P P P P P 
6 | _ _ _ _ _ N _ _ 
5 | _ _ _ _ _ _ _ _ 
4 | _ _ _ P _ _ _ _ 
3 | _ _ _ _ _ _ _ _ 
2 | P P P Q P P P P 
1 | R N B _ K B N R 
-------------------
  | A B C D E F G H 

Turn of: black
Succesful move
g7g6
8 | R N B Q K B _ R 
7 | P P P P P P _ P 
6 | _ _ _ _ _ N P _ 
5 | _ _ _ _ _ _ _ _ 
4 | _ _ _ P _ _ _ _ 
3 | _ _ _ _ _ _ _ _ 
2 | P P P Q P P P P 
1 | R N B _ K B N R 
-------------------
  | A B C D E F G H 

Turn of: white
Succesful move
h2h4
8 | R N B Q K B _ R 
7 | P P P P P P _ P 
6 | _ _ _ _ _ N P _ 
5 | _ _ _ _ _ _ _ _ 
4 | _ _ _ P _ _ _ P 
3 | _ _ _ _ _ _ _ _ 
2 | P P P Q P P P _ 
1 | R N B _ K B N R 
-------------------
  | A B C D E F G H 

Turn of: black
Succesful move
f6e4
8 | R N B Q K B _ R 
7 | P P P P P P _ P 
6 | _ _ _ _ _ _ P _ 
5 | _ _ _ _ _ _ _ _ 
4 | _ _ _ P N _ _ P 
3 | _ _ _ _ _ _ _ _ 
2 | P P P Q P P P _ 
1 | R N B _ K B N R 
-------------------
  | A B C D E F G H 

Turn of: white
Succesful move
g2g3
8 | R N B Q K B _ R 
7 | P P P P P P _ P 
6 | _ _ _ _ _ _ P _ 
5 | _ _ _ _ _ _ _ _ 
4 | _ _ _ P N _ _ P 
3 | _ _ _ _ _ _ P _ 
2 | P P P Q P P _ _ 
1 | R N B _ K B N R 
-------------------
  | A B C D E F G H 

Turn of: black
Succesful move
e4d2
8 | R N B Q K B _ R 
7 | P P P P P P _ P 
6 | _ _ _ _ _ _ P _ 
5 | _ _ _ _ _ _ _ _ 
4 | _ _ _ P _ _ _ P 
3 | _ _ _ _ _ _ P _ 
2 | P P P N P P _ _ 
1 | R N B _ K B N R 
-------------------
  | A B C D E F G H 

Turn of: white
Succesful move
b1c3
8 | R N B Q K B _ R 
7 | P P P P P P _ P 
6 | _ _ _ _ _ _ P _ 
5 | _ _ _ _ _ _ _ _ 
4 | _ _ _ P _ _ _ P 
3 | _ _ N _ _ _ P _ 
2 | P P P N P P _ _ 
1 | R _ B _ K B N R 
-------------------
  | A B C D E F G H 

Turn of: black
Succesful move
d2f1
8 | R N B Q K B _ R 
7 | P P P P P P _ P 
6 | _ _ _ _ _ _ P _ 
5 | _ _ _ _ _ _ _ _ 
4 | _ _ _ P _ _ _ P 
3 | _ _ N _ _ _ P _ 
2 | P P P _ P P _ _ 
1 | R _ B _ K N N R 
-------------------
  | A B C D E F G H 

Turn of: white
Succesful move
c1e3
8 | R N B Q K B _ R 
7 | P P P P P P _ P 
6 | _ _ _ _ _ _ P _ 
5 | _ _ _ _ _ _ _ _ 
4 | _ _ _ P _ _ _ P 
3 | _ _ N _ B _ P _ 
2 | P P P _ P P _ _ 
1 | R _ _ _ K N N R 
-------------------
  | A B C D E F G H 

Turn of: black
Succesful move
f1e3
8 | R N B Q K B _ R 
7 | P P P P P P _ P 
6 | _ _ _ _ _ _ P _ 
5 | _ _ _ _ _ _ _ _ 
4 | _ _ _ P _ _ _ P 
3 | _ _ N _ N _ P _ 
2 | P P P _ P P _ _ 
1 | R _ _ _ K _ N R 
-------------------
  | A B C D E F G H 

Turn of: white
Succesful move
c3d1
8 | R N B Q K B _ R 
7 | P P P P P P _ P 
6 | _ _ _ _ _ _ P _ 
5 | _ _ _ _ _ _ _ _ 
4 | _ _ _ P _ _ _ P 
3 | _ _ _ _ N _ P _ 
2 | P P P _ P P _ _ 
1 | R _ _ N K _ N R 
-------------------
  | A B C D E F G H 

Turn of: black
Succesful move
e3d1
8 | R N B Q K B _ R 
7 | P P P P P P _ P 
6 | _ _ _ _ _ _ P _ 
5 | _ _ _ _ _ _ _ _ 
4 | _ _ _ P _ _ _ P 
3 | _ _ _ _ _ _ P _ 
2 | P P P _ P P _ _ 
1 | R _ _ N K _ N R 
-------------------
  | A B C D E F G H 

Turn of: white
Succesful move
a2a4
8 | R N B Q K B _ R 
7 | P P P P P P _ P 
6 | _ _ _ _ _ _ P _ 
5 | _ _ _ _ _ _ _ _ 
4 | P _ _ P _ _ _ P 
3 | _ _ _ _ _ _ P _ 
2 | _ P P _ P P _ _ 
1 | R _ _ N K _ N R 
-------------------
  | A B C D E F G H 

Turn of: black
Succesful move
d1b2
8 | R N B Q K B _ R 
7 | P P P P P P _ P 
6 | _ _ _ _ _ _ P _ 
5 | _ _ _ _ _ _ _ _ 
4 | P _ _ P _ _ _ P 
3 | _ _ _ _ _ _ P _ 
2 | _ N P _ P P _ _ 
1 | R _ _ _ K _ N R 
-------------------
  | A B C D E F G H 

We are playing as White
Move history:
d2d4
g8f6
d1d2
g7g6
h2h4
f6e4
g2g3
e4d2
b1c3
d2f1
c1e3
f1e3
c3d1
e3d1
a2a4
d1b2
8 | R N B Q K B _ R 
7 | P P P P P P _ P 
6 | _ _ _ _ _ _ P _ 
5 | _ _ _ _ _ _ _ _ 
4 | P _ _ P _ _ _ P 
3 | _ _ _ _ _ _ P _ 
2 | _ N P _ P P _ _ 
1 | R _ _ _ K _ N R 
-------------------
  | A B C D E F G H 

It is white's turn to play.
AI's move: h4h5
Move written: h4h5
[32;1m[Game] [0mPlayer's error code: 0
[32;1m[Game] [0mChecking move validity...
[32;1m[Board] [0mInitializing board...
[32;1m[Board] [0mLoading history file `championship/lizzie-iii-bbd/history.csv`...
[32;1m[Board] [0mLoaded 16 move(s).
[32;1m[Board] [0mLoading move file `championship/lizzie-iii-bbd/move.csv`...
[32;1m[Board] [0mWhite player is playing h4 to h5.
[32;1m[Board] [0m
[32;1m[Board] [0m    a b c d e f g h 
[32;1m[Board] [0m  -------------------
[32;1m[Board] [0m8 ||[30;1mr[0m|[30;1mk[0m|[30;1mb[0m|[30;1mQ[0m|[30;1mK[0m|[30;1mb[0m|[7;1m [0m|[30;1mr[0m|| 8
[32;1m[Board] [0m  -------------------
[32;1m[Board] [0m7 ||[30;1mp[0m|[30;1mp[0m|[30;1mp[0m|[30;1mp[0m|[30;1mp[0m|[30;1mp[0m| |[30;1mp[0m|| 7
[32;1m[Board] [0m  -------------------
[32;1m[Board] [0m6 ||[7;1m [0m| |[7;1m [0m| |[7;1m [0m| |[30;1mp[0m| || 6
[32;1m[Board] [0m  -------------------
[32;1m[Board] [0m5 || |[7;1m [0m| |[7;1m [0m| |[7;1m [0m| |[0;1mp[0m|| 5
[32;1m[Board] [0m  -------------------
[32;1m[Board] [0m4 ||[0;1mp[0m| |[7;1m [0m|[0;1mp[0m|[7;1m [0m| |[7;1m [0m| || 4
[32;1m[Board] [0m  -------------------
[32;1m[Board] [0m3 || |[7;1m [0m| |[7;1m [0m| |[7;1m [0m|[0;1mp[0m|[7;1m [0m|| 3
[32;1m[Board] [0m  -------------------
[32;1m[Board] [0m2 ||[7;1m [0m|[30;1mk[0m|[0;1mp[0m| |[0;1mp[0m|[0;1mp[0m|[7;1m [0m| || 2
[32;1m[Board] [0m  -------------------
[32;1m[Board] [0m1 ||[0;1mr[0m|[7;1m [0m| |[7;1m [0m|[0;1mK[0m|[7;1m [0m|[0;1mk[0m|[0;1mr[0m|| 1
[32;1m[Board] [0m  -------------------
[32;1m[Board] [0m    a b c d e f g h
[32;1m[Board] [0m
[32;1m[Referee] [0mThis is the turn of the Black player...
info score 2343 depth 1 nodes 75 time 0
info score 2322 depth 2 nodes 396 time 0
info score 2329 depth 3 nodes 1502 time 2
info score 2309 depth 4 nodes 5581 time 10
info score 2333 depth 5 nodes 24426 time 46
info score 2344 depth 6 nodes 95091 time 186
info score 2370 depth 7 nodes 463958 time 906
bestmove g6h5
[32;1m[Game] [0mPlayer's error code: 0
[32;1m[Game] [0mChecking move validity...
[32;1m[Board] [0mInitializing board...
[32;1m[Board] [0mLoading history file `championship/lizzie-iii-bbd/history.csv`...
[32;1m[Board] [0mLoaded 17 move(s).
[32;1m[Board] [0mLoading move file `championship/lizzie-iii-bbd/move.csv`...
[32;1m[Board] [0mBlack player is playing g6 to h5.
[32;1m[Board] [0m[5;1mBlack Pawn is taking White Pawn.[0m
[32;1m[Board] [0m
[32;1m[Board] [0m    a b c d e f g h 
[32;1m[Board] [0m  -------------------
[32;1m[Board] [0m8 ||[30;1mr[0m|[30;1mk[0m|[30;1mb[0m|[30;1mQ[0m|[30;1mK[0m|[30;1mb[0m|[7;1m [0m|[30;1mr[0m|| 8
[32;1m[Board] [0m  -------------------
[32;1m[Board] [0m7 ||[30;1mp[0m|[30;1mp[0m|[30;1mp[0m|[30;1mp[0m|[30;1mp[0m|[30;1mp[0m| |[30;1mp[0m|| 7
[32;1m[Board] [0m  -------------------
[32;1m[Board] [0m6 ||[7;1m [0m| |[7;1m [0m| |[7;1m [0m| |[7;1m [0m| || 6
[32;1m[Board] [0m  -------------------
[32;1m[Board] [0m5 || |[7;1m [0m| |[7;1m [0m| |[7;1m [0m| |[30;1mp[0m|| 5
[32;1m[Board] [0m  -------------------
[32;1m[Board] [0m4 ||[0;1mp[0m| |[7;1m [0m|[0;1mp[0m|[7;1m [0m| |[7;1m [0m| || 4
[32;1m[Board] [0m  -------------------
[32;1m[Board] [0m3 || |[7;1m [0m| |[7;1m [0m| |[7;1m [0m|[0;1mp[0m|[7;1m [0m|| 3
[32;1m[Board] [0m  -------------------
[32;1m[Board] [0m2 ||[7;1m [0m|[30;1mk[0m|[0;1mp[0m| |[0;1mp[0m|[0;1mp[0m|[7;1m [0m| || 2
[32;1m[Board] [0m  -------------------
[32;1m[Board] [0m1 ||[0;1mr[0m|[7;1m [0m| |[7;1m [0m|[0;1mK[0m|[7;1m [0m|[0;1mk[0m|[0;1mr[0m|| 1
[32;1m[Board] [0m  -------------------
[32;1m[Board] [0m    a b c d e f g h
[32;1m[Board] [0m
[32;1m[Referee] [0mThis is the turn of the White player...
Input file: championship/lizzie-iii-bbd/history.csv
Output file: championship/lizzie-iii-bbd/move.csv
Turn of: white
Succesful move
d2d4
8 | R N B Q K B N R 
7 | P P P P P P P P 
6 | _ _ _ _ _ _ _ _ 
5 | _ _ _ _ _ _ _ _ 
4 | _ _ _ P _ _ _ _ 
3 | _ _ _ _ _ _ _ _ 
2 | P P P _ P P P P 
1 | R N B Q K B N R 
-------------------
  | A B C D E F G H 

Turn of: black
Succesful move
g8f6
8 | R N B Q K B _ R 
7 | P P P P P P P P 
6 | _ _ _ _ _ N _ _ 
5 | _ _ _ _ _ _ _ _ 
4 | _ _ _ P _ _ _ _ 
3 | _ _ _ _ _ _ _ _ 
2 | P P P _ P P P P 
1 | R N B Q K B N R 
-------------------
  | A B C D E F G H 

Turn of: white
Succesful move
d1d2
8 | R N B Q K B _ R 
7 | P P P P P P P P 
6 | _ _ _ _ _ N _ _ 
5 | _ _ _ _ _ _ _ _ 
4 | _ _ _ P _ _ _ _ 
3 | _ _ _ _ _ _ _ _ 
2 | P P P Q P P P P 
1 | R N B _ K B N R 
-------------------
  | A B C D E F G H 

Turn of: black
Succesful move
g7g6
8 | R N B Q K B _ R 
7 | P P P P P P _ P 
6 | _ _ _ _ _ N P _ 
5 | _ _ _ _ _ _ _ _ 
4 | _ _ _ P _ _ _ _ 
3 | _ _ _ _ _ _ _ _ 
2 | P P P Q P P P P 
1 | R N B _ K B N R 
-------------------
  | A B C D E F G H 

Turn of: white
Succesful move
h2h4
8 | R N B Q K B _ R 
7 | P P P P P P _ P 
6 | _ _ _ _ _ N P _ 
5 | _ _ _ _ _ _ _ _ 
4 | _ _ _ P _ _ _ P 
3 | _ _ _ _ _ _ _ _ 
2 | P P P Q P P P _ 
1 | R N B _ K B N R 
-------------------
  | A B C D E F G H 

Turn of: black
Succesful move
f6e4
8 | R N B Q K B _ R 
7 | P P P P P P _ P 
6 | _ _ _ _ _ _ P _ 
5 | _ _ _ _ _ _ _ _ 
4 | _ _ _ P N _ _ P 
3 | _ _ _ _ _ _ _ _ 
2 | P P P Q P P P _ 
1 | R N B _ K B N R 
-------------------
  | A B C D E F G H 

Turn of: white
Succesful move
g2g3
8 | R N B Q K B _ R 
7 | P P P P P P _ P 
6 | _ _ _ _ _ _ P _ 
5 | _ _ _ _ _ _ _ _ 
4 | _ _ _ P N _ _ P 
3 | _ _ _ _ _ _ P _ 
2 | P P P Q P P _ _ 
1 | R N B _ K B N R 
-------------------
  | A B C D E F G H 

Turn of: black
Succesful move
e4d2
8 | R N B Q K B _ R 
7 | P P P P P P _ P 
6 | _ _ _ _ _ _ P _ 
5 | _ _ _ _ _ _ _ _ 
4 | _ _ _ P _ _ _ P 
3 | _ _ _ _ _ _ P _ 
2 | P P P N P P _ _ 
1 | R N B _ K B N R 
-------------------
  | A B C D E F G H 

Turn of: white
Succesful move
b1c3
8 | R N B Q K B _ R 
7 | P P P P P P _ P 
6 | _ _ _ _ _ _ P _ 
5 | _ _ _ _ _ _ _ _ 
4 | _ _ _ P _ _ _ P 
3 | _ _ N _ _ _ P _ 
2 | P P P N P P _ _ 
1 | R _ B _ K B N R 
-------------------
  | A B C D E F G H 

Turn of: black
Succesful move
d2f1
8 | R N B Q K B _ R 
7 | P P P P P P _ P 
6 | _ _ _ _ _ _ P _ 
5 | _ _ _ _ _ _ _ _ 
4 | _ _ _ P _ _ _ P 
3 | _ _ N _ _ _ P _ 
2 | P P P _ P P _ _ 
1 | R _ B _ K N N R 
-------------------
  | A B C D E F G H 

Turn of: white
Succesful move
c1e3
8 | R N B Q K B _ R 
7 | P P P P P P _ P 
6 | _ _ _ _ _ _ P _ 
5 | _ _ _ _ _ _ _ _ 
4 | _ _ _ P _ _ _ P 
3 | _ _ N _ B _ P _ 
2 | P P P _ P P _ _ 
1 | R _ _ _ K N N R 
-------------------
  | A B C D E F G H 

Turn of: black
Succesful move
f1e3
8 | R N B Q K B _ R 
7 | P P P P P P _ P 
6 | _ _ _ _ _ _ P _ 
5 | _ _ _ _ _ _ _ _ 
4 | _ _ _ P _ _ _ P 
3 | _ _ N _ N _ P _ 
2 | P P P _ P P _ _ 
1 | R _ _ _ K _ N R 
-------------------
  | A B C D E F G H 

Turn of: white
Succesful move
c3d1
8 | R N B Q K B _ R 
7 | P P P P P P _ P 
6 | _ _ _ _ _ _ P _ 
5 | _ _ _ _ _ _ _ _ 
4 | _ _ _ P _ _ _ P 
3 | _ _ _ _ N _ P _ 
2 | P P P _ P P _ _ 
1 | R _ _ N K _ N R 
-------------------
  | A B C D E F G H 

Turn of: black
Succesful move
e3d1
8 | R N B Q K B _ R 
7 | P P P P P P _ P 
6 | _ _ _ _ _ _ P _ 
5 | _ _ _ _ _ _ _ _ 
4 | _ _ _ P _ _ _ P 
3 | _ _ _ _ _ _ P _ 
2 | P P P _ P P _ _ 
1 | R _ _ N K _ N R 
-------------------
  | A B C D E F G H 

Turn of: white
Succesful move
a2a4
8 | R N B Q K B _ R 
7 | P P P P P P _ P 
6 | _ _ _ _ _ _ P _ 
5 | _ _ _ _ _ _ _ _ 
4 | P _ _ P _ _ _ P 
3 | _ _ _ _ _ _ P _ 
2 | _ P P _ P P _ _ 
1 | R _ _ N K _ N R 
-------------------
  | A B C D E F G H 

Turn of: black
Succesful move
d1b2
8 | R N B Q K B _ R 
7 | P P P P P P _ P 
6 | _ _ _ _ _ _ P _ 
5 | _ _ _ _ _ _ _ _ 
4 | P _ _ P _ _ _ P 
3 | _ _ _ _ _ _ P _ 
2 | _ N P _ P P _ _ 
1 | R _ _ _ K _ N R 
-------------------
  | A B C D E F G H 

Turn of: white
Succesful move
h4h5
8 | R N B Q K B _ R 
7 | P P P P P P _ P 
6 | _ _ _ _ _ _ P _ 
5 | _ _ _ _ _ _ _ P 
4 | P _ _ P _ _ _ _ 
3 | _ _ _ _ _ _ P _ 
2 | _ N P _ P P _ _ 
1 | R _ _ _ K _ N R 
-------------------
  | A B C D E F G H 

Turn of: black
Succesful move
g6h5
8 | R N B Q K B _ R 
7 | P P P P P P _ P 
6 | _ _ _ _ _ _ _ _ 
5 | _ _ _ _ _ _ _ P 
4 | P _ _ P _ _ _ _ 
3 | _ _ _ _ _ _ P _ 
2 | _ N P _ P P _ _ 
1 | R _ _ _ K _ N R 
-------------------
  | A B C D E F G H 

We are playing as White
Move history:
d2d4
g8f6
d1d2
g7g6
h2h4
f6e4
g2g3
e4d2
b1c3
d2f1
c1e3
f1e3
c3d1
e3d1
a2a4
d1b2
h4h5
g6h5
8 | R N B Q K B _ R 
7 | P P P P P P _ P 
6 | _ _ _ _ _ _ _ _ 
5 | _ _ _ _ _ _ _ P 
4 | P _ _ P _ _ _ _ 
3 | _ _ _ _ _ _ P _ 
2 | _ N P _ P P _ _ 
1 | R _ _ _ K _ N R 
-------------------
  | A B C D E F G H 

It is white's turn to play.
AI's move: a1d1
Move written: a1d1
[32;1m[Game] [0mPlayer's error code: 0
[32;1m[Game] [0mChecking move validity...
[32;1m[Board] [0mInitializing board...
[32;1m[Board] [0mLoading history file `championship/lizzie-iii-bbd/history.csv`...
[32;1m[Board] [0mLoaded 18 move(s).
[32;1m[Board] [0mLoading move file `championship/lizzie-iii-bbd/move.csv`...
[32;1m[Board] [0mWhite player is playing a1 to d1.
[32;1m[Board] [0m
[32;1m[Board] [0m    a b c d e f g h 
[32;1m[Board] [0m  -------------------
[32;1m[Board] [0m8 ||[30;1mr[0m|[30;1mk[0m|[30;1mb[0m|[30;1mQ[0m|[30;1mK[0m|[30;1mb[0m|[7;1m [0m|[30;1mr[0m|| 8
[32;1m[Board] [0m  -------------------
[32;1m[Board] [0m7 ||[30;1mp[0m|[30;1mp[0m|[30;1mp[0m|[30;1mp[0m|[30;1mp[0m|[30;1mp[0m| |[30;1mp[0m|| 7
[32;1m[Board] [0m  -------------------
[32;1m[Board] [0m6 ||[7;1m [0m| |[7;1m [0m| |[7;1m [0m| |[7;1m [0m| || 6
[32;1m[Board] [0m  -------------------
[32;1m[Board] [0m5 || |[7;1m [0m| |[7;1m [0m| |[7;1m [0m| |[30;1mp[0m|| 5
[32;1m[Board] [0m  -------------------
[32;1m[Board] [0m4 ||[0;1mp[0m| |[7;1m [0m|[0;1mp[0m|[7;1m [0m| |[7;1m [0m| || 4
[32;1m[Board] [0m  -------------------
[32;1m[Board] [0m3 || |[7;1m [0m| |[7;1m [0m| |[7;1m [0m|[0;1mp[0m|[7;1m [0m|| 3
[32;1m[Board] [0m  -------------------
[32;1m[Board] [0m2 ||[7;1m [0m|[30;1mk[0m|[0;1mp[0m| |[0;1mp[0m|[0;1mp[0m|[7;1m [0m| || 2
[32;1m[Board] [0m  -------------------
[32;1m[Board] [0m1 || |[7;1m [0m| |[0;1mr[0m|[0;1mK[0m|[7;1m [0m|[0;1mk[0m|[0;1mr[0m|| 1
[32;1m[Board] [0m  -------------------
[32;1m[Board] [0m    a b c d e f g h
[32;1m[Board] [0m
[32;1m[Referee] [0mThis is the turn of the Black player...
info score 2624 depth 1 nodes 26 time 0
info score 2624 depth 2 nodes 206 time 0
info score 2718 depth 3 nodes 997 time 2
info score 2611 depth 4 nodes 5847 time 11
info score 2652 depth 5 nodes 24881 time 47
info score 2658 depth 6 nodes 119014 time 231
info score 2663 depth 7 nodes 586804 time 1157
bestmove b2d1
[32;1m[Game] [0mPlayer's error code: 0
[32;1m[Game] [0mChecking move validity...
[32;1m[Board] [0mInitializing board...
[32;1m[Board] [0mLoading history file `championship/lizzie-iii-bbd/history.csv`...
[32;1m[Board] [0mLoaded 19 move(s).
[32;1m[Board] [0mLoading move file `championship/lizzie-iii-bbd/move.csv`...
[32;1m[Board] [0mBlack player is playing b2 to d1.
[32;1m[Board] [0m[5;1mBlack Knight is taking White Rook.[0m
[32;1m[Board] [0m
[32;1m[Board] [0m    a b c d e f g h 
[32;1m[Board] [0m  -------------------
[32;1m[Board] [0m8 ||[30;1mr[0m|[30;1mk[0m|[30;1mb[0m|[30;1mQ[0m|[30;1mK[0m|[30;1mb[0m|[7;1m [0m|[30;1mr[0m|| 8
[32;1m[Board] [0m  -------------------
[32;1m[Board] [0m7 ||[30;1mp[0m|[30;1mp[0m|[30;1mp[0m|[30;1mp[0m|[30;1mp[0m|[30;1mp[0m| |[30;1mp[0m|| 7
[32;1m[Board] [0m  -------------------
[32;1m[Board] [0m6 ||[7;1m [0m| |[7;1m [0m| |[7;1m [0m| |[7;1m [0m| || 6
[32;1m[Board] [0m  -------------------
[32;1m[Board] [0m5 || |[7;1m [0m| |[7;1m [0m| |[7;1m [0m| |[30;1mp[0m|| 5
[32;1m[Board] [0m  -------------------
[32;1m[Board] [0m4 ||[0;1mp[0m| |[7;1m [0m|[0;1mp[0m|[7;1m [0m| |[7;1m [0m| || 4
[32;1m[Board] [0m  -------------------
[32;1m[Board] [0m3 || |[7;1m [0m| |[7;1m [0m| |[7;1m [0m|[0;1mp[0m|[7;1m [0m|| 3
[32;1m[Board] [0m  -------------------
[32;1m[Board] [0m2 ||[7;1m [0m| |[0;1mp[0m| |[0;1mp[0m|[0;1mp[0m|[7;1m [0m| || 2
[32;1m[Board] [0m  -------------------
[32;1m[Board] [0m1 || |[7;1m [0m| |[30;1mk[0m|[0;1mK[0m|[7;1m [0m|[0;1mk[0m|[0;1mr[0m|| 1
[32;1m[Board] [0m  -------------------
[32;1m[Board] [0m    a b c d e f g h
[32;1m[Board] [0m
[32;1m[Referee] [0mThis is the turn of the White player...
Input file: championship/lizzie-iii-bbd/history.csv
Output file: championship/lizzie-iii-bbd/move.csv
Turn of: white
Succesful move
d2d4
8 | R N B Q K B N R 
7 | P P P P P P P P 
6 | _ _ _ _ _ _ _ _ 
5 | _ _ _ _ _ _ _ _ 
4 | _ _ _ P _ _ _ _ 
3 | _ _ _ _ _ _ _ _ 
2 | P P P _ P P P P 
1 | R N B Q K B N R 
-------------------
  | A B C D E F G H 

Turn of: black
Succesful move
g8f6
8 | R N B Q K B _ R 
7 | P P P P P P P P 
6 | _ _ _ _ _ N _ _ 
5 | _ _ _ _ _ _ _ _ 
4 | _ _ _ P _ _ _ _ 
3 | _ _ _ _ _ _ _ _ 
2 | P P P _ P P P P 
1 | R N B Q K B N R 
-------------------
  | A B C D E F G H 

Turn of: white
Succesful move
d1d2
8 | R N B Q K B _ R 
7 | P P P P P P P P 
6 | _ _ _ _ _ N _ _ 
5 | _ _ _ _ _ _ _ _ 
4 | _ _ _ P _ _ _ _ 
3 | _ _ _ _ _ _ _ _ 
2 | P P P Q P P P P 
1 | R N B _ K B N R 
-------------------
  | A B C D E F G H 

Turn of: black
Succesful move
g7g6
8 | R N B Q K B _ R 
7 | P P P P P P _ P 
6 | _ _ _ _ _ N P _ 
5 | _ _ _ _ _ _ _ _ 
4 | _ _ _ P _ _ _ _ 
3 | _ _ _ _ _ _ _ _ 
2 | P P P Q P P P P 
1 | R N B _ K B N R 
-------------------
  | A B C D E F G H 

Turn of: white
Succesful move
h2h4
8 | R N B Q K B _ R 
7 | P P P P P P _ P 
6 | _ _ _ _ _ N P _ 
5 | _ _ _ _ _ _ _ _ 
4 | _ _ _ P _ _ _ P 
3 | _ _ _ _ _ _ _ _ 
2 | P P P Q P P P _ 
1 | R N B _ K B N R 
-------------------
  | A B C D E F G H 

Turn of: black
Succesful move
f6e4
8 | R N B Q K B _ R 
7 | P P P P P P _ P 
6 | _ _ _ _ _ _ P _ 
5 | _ _ _ _ _ _ _ _ 
4 | _ _ _ P N _ _ P 
3 | _ _ _ _ _ _ _ _ 
2 | P P P Q P P P _ 
1 | R N B _ K B N R 
-------------------
  | A B C D E F G H 

Turn of: white
Succesful move
g2g3
8 | R N B Q K B _ R 
7 | P P P P P P _ P 
6 | _ _ _ _ _ _ P _ 
5 | _ _ _ _ _ _ _ _ 
4 | _ _ _ P N _ _ P 
3 | _ _ _ _ _ _ P _ 
2 | P P P Q P P _ _ 
1 | R N B _ K B N R 
-------------------
  | A B C D E F G H 

Turn of: black
Succesful move
e4d2
8 | R N B Q K B _ R 
7 | P P P P P P _ P 
6 | _ _ _ _ _ _ P _ 
5 | _ _ _ _ _ _ _ _ 
4 | _ _ _ P _ _ _ P 
3 | _ _ _ _ _ _ P _ 
2 | P P P N P P _ _ 
1 | R N B _ K B N R 
-------------------
  | A B C D E F G H 

Turn of: white
Succesful move
b1c3
8 | R N B Q K B _ R 
7 | P P P P P P _ P 
6 | _ _ _ _ _ _ P _ 
5 | _ _ _ _ _ _ _ _ 
4 | _ _ _ P _ _ _ P 
3 | _ _ N _ _ _ P _ 
2 | P P P N P P _ _ 
1 | R _ B _ K B N R 
-------------------
  | A B C D E F G H 

Turn of: black
Succesful move
d2f1
8 | R N B Q K B _ R 
7 | P P P P P P _ P 
6 | _ _ _ _ _ _ P _ 
5 | _ _ _ _ _ _ _ _ 
4 | _ _ _ P _ _ _ P 
3 | _ _ N _ _ _ P _ 
2 | P P P _ P P _ _ 
1 | R _ B _ K N N R 
-------------------
  | A B C D E F G H 

Turn of: white
Succesful move
c1e3
8 | R N B Q K B _ R 
7 | P P P P P P _ P 
6 | _ _ _ _ _ _ P _ 
5 | _ _ _ _ _ _ _ _ 
4 | _ _ _ P _ _ _ P 
3 | _ _ N _ B _ P _ 
2 | P P P _ P P _ _ 
1 | R _ _ _ K N N R 
-------------------
  | A B C D E F G H 

Turn of: black
Succesful move
f1e3
8 | R N B Q K B _ R 
7 | P P P P P P _ P 
6 | _ _ _ _ _ _ P _ 
5 | _ _ _ _ _ _ _ _ 
4 | _ _ _ P _ _ _ P 
3 | _ _ N _ N _ P _ 
2 | P P P _ P P _ _ 
1 | R _ _ _ K _ N R 
-------------------
  | A B C D E F G H 

Turn of: white
Succesful move
c3d1
8 | R N B Q K B _ R 
7 | P P P P P P _ P 
6 | _ _ _ _ _ _ P _ 
5 | _ _ _ _ _ _ _ _ 
4 | _ _ _ P _ _ _ P 
3 | _ _ _ _ N _ P _ 
2 | P P P _ P P _ _ 
1 | R _ _ N K _ N R 
-------------------
  | A B C D E F G H 

Turn of: black
Succesful move
e3d1
8 | R N B Q K B _ R 
7 | P P P P P P _ P 
6 | _ _ _ _ _ _ P _ 
5 | _ _ _ _ _ _ _ _ 
4 | _ _ _ P _ _ _ P 
3 | _ _ _ _ _ _ P _ 
2 | P P P _ P P _ _ 
1 | R _ _ N K _ N R 
-------------------
  | A B C D E F G H 

Turn of: white
Succesful move
a2a4
8 | R N B Q K B _ R 
7 | P P P P P P _ P 
6 | _ _ _ _ _ _ P _ 
5 | _ _ _ _ _ _ _ _ 
4 | P _ _ P _ _ _ P 
3 | _ _ _ _ _ _ P _ 
2 | _ P P _ P P _ _ 
1 | R _ _ N K _ N R 
-------------------
  | A B C D E F G H 

Turn of: black
Succesful move
d1b2
8 | R N B Q K B _ R 
7 | P P P P P P _ P 
6 | _ _ _ _ _ _ P _ 
5 | _ _ _ _ _ _ _ _ 
4 | P _ _ P _ _ _ P 
3 | _ _ _ _ _ _ P _ 
2 | _ N P _ P P _ _ 
1 | R _ _ _ K _ N R 
-------------------
  | A B C D E F G H 

Turn of: white
Succesful move
h4h5
8 | R N B Q K B _ R 
7 | P P P P P P _ P 
6 | _ _ _ _ _ _ P _ 
5 | _ _ _ _ _ _ _ P 
4 | P _ _ P _ _ _ _ 
3 | _ _ _ _ _ _ P _ 
2 | _ N P _ P P _ _ 
1 | R _ _ _ K _ N R 
-------------------
  | A B C D E F G H 

Turn of: black
Succesful move
g6h5
8 | R N B Q K B _ R 
7 | P P P P P P _ P 
6 | _ _ _ _ _ _ _ _ 
5 | _ _ _ _ _ _ _ P 
4 | P _ _ P _ _ _ _ 
3 | _ _ _ _ _ _ P _ 
2 | _ N P _ P P _ _ 
1 | R _ _ _ K _ N R 
-------------------
  | A B C D E F G H 

Turn of: white
Succesful move
a1d1
8 | R N B Q K B _ R 
7 | P P P P P P _ P 
6 | _ _ _ _ _ _ _ _ 
5 | _ _ _ _ _ _ _ P 
4 | P _ _ P _ _ _ _ 
3 | _ _ _ _ _ _ P _ 
2 | _ N P _ P P _ _ 
1 | _ _ _ R K _ N R 
-------------------
  | A B C D E F G H 

Turn of: black
Succesful move
b2d1
8 | R N B Q K B _ R 
7 | P P P P P P _ P 
6 | _ _ _ _ _ _ _ _ 
5 | _ _ _ _ _ _ _ P 
4 | P _ _ P _ _ _ _ 
3 | _ _ _ _ _ _ P _ 
2 | _ _ P _ P P _ _ 
1 | _ _ _ N K _ N R 
-------------------
  | A B C D E F G H 

We are playing as White
Move history:
d2d4
g8f6
d1d2
g7g6
h2h4
f6e4
g2g3
e4d2
b1c3
d2f1
c1e3
f1e3
c3d1
e3d1
a2a4
d1b2
h4h5
g6h5
a1d1
b2d1
8 | R N B Q K B _ R 
7 | P P P P P P _ P 
6 | _ _ _ _ _ _ _ _ 
5 | _ _ _ _ _ _ _ P 
4 | P _ _ P _ _ _ _ 
3 | _ _ _ _ _ _ P _ 
2 | _ _ P _ P P _ _ 
1 | _ _ _ N K _ N R 
-------------------
  | A B C D E F G H 

It is white's turn to play.
AI's move: f2f4
Move written: f2f4
[32;1m[Game] [0mPlayer's error code: 0
[32;1m[Game] [0mChecking move validity...
[32;1m[Board] [0mInitializing board...
[32;1m[Board] [0mLoading history file `championship/lizzie-iii-bbd/history.csv`...
[32;1m[Board] [0mLoaded 20 move(s).
[32;1m[Board] [0mLoading move file `championship/lizzie-iii-bbd/move.csv`...
[32;1m[Board] [0mWhite player is playing f2 to f4.
[32;1m[Board] [0m
[32;1m[Board] [0m    a b c d e f g h 
[32;1m[Board] [0m  -------------------
[32;1m[Board] [0m8 ||[30;1mr[0m|[30;1mk[0m|[30;1mb[0m|[30;1mQ[0m|[30;1mK[0m|[30;1mb[0m|[7;1m [0m|[30;1mr[0m|| 8
[32;1m[Board] [0m  -------------------
[32;1m[Board] [0m7 ||[30;1mp[0m|[30;1mp[0m|[30;1mp[0m|[30;1mp[0m|[30;1mp[0m|[30;1mp[0m| |[30;1mp[0m|| 7
[32;1m[Board] [0m  -------------------
[32;1m[Board] [0m6 ||[7;1m [0m| |[7;1m [0m| |[7;1m [0m| |[7;1m [0m| || 6
[32;1m[Board] [0m  -------------------
[32;1m[Board] [0m5 || |[7;1m [0m| |[7;1m [0m| |[7;1m [0m| |[30;1mp[0m|| 5
[32;1m[Board] [0m  -------------------
[32;1m[Board] [0m4 ||[0;1mp[0m| |[7;1m [0m|[0;1mp[0m|[7;1m [0m|[0;1mp[0m|[7;1m [0m| || 4
[32;1m[Board] [0m  -------------------
[32;1m[Board] [0m3 || |[7;1m [0m| |[7;1m [0m| |[7;1m [0m|[0;1mp[0m|[7;1m [0m|| 3
[32;1m[Board] [0m  -------------------
[32;1m[Board] [0m2 ||[7;1m [0m| |[0;1mp[0m| |[0;1mp[0m| |[7;1m [0m| || 2
[32;1m[Board] [0m  -------------------
[32;1m[Board] [0m1 || |[7;1m [0m| |[30;1mk[0m|[0;1mK[0m|[7;1m [0m|[0;1mk[0m|[0;1mr[0m|| 1
[32;1m[Board] [0m  -------------------
[32;1m[Board] [0m    a b c d e f g h
[32;1m[Board] [0m
[32;1m[Referee] [0mThis is the turn of the Black player...
info score 3082 depth 1 nodes 69 time 0
info score 3041 depth 2 nodes 260 time 0
info score 3072 depth 3 nodes 1788 time 3
info score 3078 depth 4 nodes 6964 time 13
info score 3068 depth 5 nodes 39538 time 73
info score 3106 depth 6 nodes 104060 time 197
info score 3154 depth 7 nodes 587130 time 1118
bestmove b8c6
[32;1m[Game] [0mPlayer's error code: 0
[32;1m[Game] [0mChecking move validity...
[32;1m[Board] [0mInitializing board...
[32;1m[Board] [0mLoading history file `championship/lizzie-iii-bbd/history.csv`...
[32;1m[Board] [0mLoaded 21 move(s).
[32;1m[Board] [0mLoading move file `championship/lizzie-iii-bbd/move.csv`...
[32;1m[Board] [0mBlack player is playing b8 to c6.
[32;1m[Board] [0m
[32;1m[Board] [0m    a b c d e f g h 
[32;1m[Board] [0m  -------------------
[32;1m[Board] [0m8 ||[30;1mr[0m| |[30;1mb[0m|[30;1mQ[0m|[30;1mK[0m|[30;1mb[0m|[7;1m [0m|[30;1mr[0m|| 8
[32;1m[Board] [0m  -------------------
[32;1m[Board] [0m7 ||[30;1mp[0m|[30;1mp[0m|[30;1mp[0m|[30;1mp[0m|[30;1mp[0m|[30;1mp[0m| |[30;1mp[0m|| 7
[32;1m[Board] [0m  -------------------
[32;1m[Board] [0m6 ||[7;1m [0m| |[30;1mk[0m| |[7;1m [0m| |[7;1m [0m| || 6
[32;1m[Board] [0m  -------------------
[32;1m[Board] [0m5 || |[7;1m [0m| |[7;1m [0m| |[7;1m [0m| |[30;1mp[0m|| 5
[32;1m[Board] [0m  -------------------
[32;1m[Board] [0m4 ||[0;1mp[0m| |[7;1m [0m|[0;1mp[0m|[7;1m [0m|[0;1mp[0m|[7;1m [0m| || 4
[32;1m[Board] [0m  -------------------
[32;1m[Board] [0m3 || |[7;1m [0m| |[7;1m [0m| |[7;1m [0m|[0;1mp[0m|[7;1m [0m|| 3
[32;1m[Board] [0m  -------------------
[32;1m[Board] [0m2 ||[7;1m [0m| |[0;1mp[0m| |[0;1mp[0m| |[7;1m [0m| || 2
[32;1m[Board] [0m  -------------------
[32;1m[Board] [0m1 || |[7;1m [0m| |[30;1mk[0m|[0;1mK[0m|[7;1m [0m|[0;1mk[0m|[0;1mr[0m|| 1
[32;1m[Board] [0m  -------------------
[32;1m[Board] [0m    a b c d e f g h
[32;1m[Board] [0m
[32;1m[Referee] [0mThis is the turn of the White player...
Input file: championship/lizzie-iii-bbd/history.csv
Output file: championship/lizzie-iii-bbd/move.csv
Turn of: white
Succesful move
d2d4
8 | R N B Q K B N R 
7 | P P P P P P P P 
6 | _ _ _ _ _ _ _ _ 
5 | _ _ _ _ _ _ _ _ 
4 | _ _ _ P _ _ _ _ 
3 | _ _ _ _ _ _ _ _ 
2 | P P P _ P P P P 
1 | R N B Q K B N R 
-------------------
  | A B C D E F G H 

Turn of: black
Succesful move
g8f6
8 | R N B Q K B _ R 
7 | P P P P P P P P 
6 | _ _ _ _ _ N _ _ 
5 | _ _ _ _ _ _ _ _ 
4 | _ _ _ P _ _ _ _ 
3 | _ _ _ _ _ _ _ _ 
2 | P P P _ P P P P 
1 | R N B Q K B N R 
-------------------
  | A B C D E F G H 

Turn of: white
Succesful move
d1d2
8 | R N B Q K B _ R 
7 | P P P P P P P P 
6 | _ _ _ _ _ N _ _ 
5 | _ _ _ _ _ _ _ _ 
4 | _ _ _ P _ _ _ _ 
3 | _ _ _ _ _ _ _ _ 
2 | P P P Q P P P P 
1 | R N B _ K B N R 
-------------------
  | A B C D E F G H 

Turn of: black
Succesful move
g7g6
8 | R N B Q K B _ R 
7 | P P P P P P _ P 
6 | _ _ _ _ _ N P _ 
5 | _ _ _ _ _ _ _ _ 
4 | _ _ _ P _ _ _ _ 
3 | _ _ _ _ _ _ _ _ 
2 | P P P Q P P P P 
1 | R N B _ K B N R 
-------------------
  | A B C D E F G H 

Turn of: white
Succesful move
h2h4
8 | R N B Q K B _ R 
7 | P P P P P P _ P 
6 | _ _ _ _ _ N P _ 
5 | _ _ _ _ _ _ _ _ 
4 | _ _ _ P _ _ _ P 
3 | _ _ _ _ _ _ _ _ 
2 | P P P Q P P P _ 
1 | R N B _ K B N R 
-------------------
  | A B C D E F G H 

Turn of: black
Succesful move
f6e4
8 | R N B Q K B _ R 
7 | P P P P P P _ P 
6 | _ _ _ _ _ _ P _ 
5 | _ _ _ _ _ _ _ _ 
4 | _ _ _ P N _ _ P 
3 | _ _ _ _ _ _ _ _ 
2 | P P P Q P P P _ 
1 | R N B _ K B N R 
-------------------
  | A B C D E F G H 

Turn of: white
Succesful move
g2g3
8 | R N B Q K B _ R 
7 | P P P P P P _ P 
6 | _ _ _ _ _ _ P _ 
5 | _ _ _ _ _ _ _ _ 
4 | _ _ _ P N _ _ P 
3 | _ _ _ _ _ _ P _ 
2 | P P P Q P P _ _ 
1 | R N B _ K B N R 
-------------------
  | A B C D E F G H 

Turn of: black
Succesful move
e4d2
8 | R N B Q K B _ R 
7 | P P P P P P _ P 
6 | _ _ _ _ _ _ P _ 
5 | _ _ _ _ _ _ _ _ 
4 | _ _ _ P _ _ _ P 
3 | _ _ _ _ _ _ P _ 
2 | P P P N P P _ _ 
1 | R N B _ K B N R 
-------------------
  | A B C D E F G H 

Turn of: white
Succesful move
b1c3
8 | R N B Q K B _ R 
7 | P P P P P P _ P 
6 | _ _ _ _ _ _ P _ 
5 | _ _ _ _ _ _ _ _ 
4 | _ _ _ P _ _ _ P 
3 | _ _ N _ _ _ P _ 
2 | P P P N P P _ _ 
1 | R _ B _ K B N R 
-------------------
  | A B C D E F G H 

Turn of: black
Succesful move
d2f1
8 | R N B Q K B _ R 
7 | P P P P P P _ P 
6 | _ _ _ _ _ _ P _ 
5 | _ _ _ _ _ _ _ _ 
4 | _ _ _ P _ _ _ P 
3 | _ _ N _ _ _ P _ 
2 | P P P _ P P _ _ 
1 | R _ B _ K N N R 
-------------------
  | A B C D E F G H 

Turn of: white
Succesful move
c1e3
8 | R N B Q K B _ R 
7 | P P P P P P _ P 
6 | _ _ _ _ _ _ P _ 
5 | _ _ _ _ _ _ _ _ 
4 | _ _ _ P _ _ _ P 
3 | _ _ N _ B _ P _ 
2 | P P P _ P P _ _ 
1 | R _ _ _ K N N R 
-------------------
  | A B C D E F G H 

Turn of: black
Succesful move
f1e3
8 | R N B Q K B _ R 
7 | P P P P P P _ P 
6 | _ _ _ _ _ _ P _ 
5 | _ _ _ _ _ _ _ _ 
4 | _ _ _ P _ _ _ P 
3 | _ _ N _ N _ P _ 
2 | P P P _ P P _ _ 
1 | R _ _ _ K _ N R 
-------------------
  | A B C D E F G H 

Turn of: white
Succesful move
c3d1
8 | R N B Q K B _ R 
7 | P P P P P P _ P 
6 | _ _ _ _ _ _ P _ 
5 | _ _ _ _ _ _ _ _ 
4 | _ _ _ P _ _ _ P 
3 | _ _ _ _ N _ P _ 
2 | P P P _ P P _ _ 
1 | R _ _ N K _ N R 
-------------------
  | A B C D E F G H 

Turn of: black
Succesful move
e3d1
8 | R N B Q K B _ R 
7 | P P P P P P _ P 
6 | _ _ _ _ _ _ P _ 
5 | _ _ _ _ _ _ _ _ 
4 | _ _ _ P _ _ _ P 
3 | _ _ _ _ _ _ P _ 
2 | P P P _ P P _ _ 
1 | R _ _ N K _ N R 
-------------------
  | A B C D E F G H 

Turn of: white
Succesful move
a2a4
8 | R N B Q K B _ R 
7 | P P P P P P _ P 
6 | _ _ _ _ _ _ P _ 
5 | _ _ _ _ _ _ _ _ 
4 | P _ _ P _ _ _ P 
3 | _ _ _ _ _ _ P _ 
2 | _ P P _ P P _ _ 
1 | R _ _ N K _ N R 
-------------------
  | A B C D E F G H 

Turn of: black
Succesful move
d1b2
8 | R N B Q K B _ R 
7 | P P P P P P _ P 
6 | _ _ _ _ _ _ P _ 
5 | _ _ _ _ _ _ _ _ 
[...]
[32;1m[Board] [0m5 ||[0;1mp[0m|[7;1m [0m| |[7;1m [0m|[30;1mk[0m|[30;1mk[0m| |[7;1m [0m|| 5
[32;1m[Board] [0m  -------------------
[32;1m[Board] [0m4 ||[7;1m [0m| |[7;1m [0m| |[7;1m [0m| |[7;1m [0m| || 4
[32;1m[Board] [0m  -------------------
[32;1m[Board] [0m3 || |[7;1m [0m| |[7;1m [0m|[30;1mb[0m|[7;1m [0m| |[7;1m [0m|| 3
[32;1m[Board] [0m  -------------------
[32;1m[Board] [0m2 ||[7;1m [0m| |[7;1m [0m| |[0;1mK[0m| |[7;1m [0m| || 2
[32;1m[Board] [0m  -------------------
[32;1m[Board] [0m1 || |[7;1m [0m| |[7;1m [0m| |[7;1m [0m|[30;1mr[0m|[7;1m [0m|| 1
[32;1m[Board] [0m  -------------------
[32;1m[Board] [0m    a b c d e f g h
[32;1m[Board] [0m
[32;1m[Referee] [0mThis is the turn of the Black player...
info score 4740 depth 1 nodes 56 time 0
info score 4794 depth 2 nodes 202 time 0
info score 4794 depth 3 nodes 2792 time 5
info score 31997 depth 4 nodes 10216 time 18
info score 31997 depth 5 nodes 117009 time 207
info score 31997 depth 6 nodes 397228 time 717
bestmove d7d6
[32;1m[Game] [0mPlayer's error code: 0
[32;1m[Game] [0mChecking move validity...
[32;1m[Board] [0mInitializing board...
[32;1m[Board] [0mLoading history file `championship/lizzie-iii-bbd/history.csv`...
[32;1m[Board] [0mLoaded 51 move(s).
[32;1m[Board] [0mLoading move file `championship/lizzie-iii-bbd/move.csv`...
[32;1m[Board] [0mBlack player is playing d7 to d6.
[32;1m[Board] [0m
[32;1m[Board] [0m    a b c d e f g h 
[32;1m[Board] [0m  -------------------
[32;1m[Board] [0m8 ||[30;1mr[0m| |[30;1mb[0m| |[30;1mQ[0m|[30;1mK[0m|[7;1m [0m| || 8
[32;1m[Board] [0m  -------------------
[32;1m[Board] [0m7 ||[30;1mp[0m|[30;1mp[0m|[30;1mp[0m|[7;1m [0m|[30;1mp[0m|[30;1mp[0m| |[30;1mp[0m|| 7
[32;1m[Board] [0m  -------------------
[32;1m[Board] [0m6 ||[7;1m [0m| |[7;1m [0m|[30;1mp[0m|[7;1m [0m| |[7;1m [0m| || 6
[32;1m[Board] [0m  -------------------
[32;1m[Board] [0m5 ||[0;1mp[0m|[7;1m [0m| |[7;1m [0m|[30;1mk[0m|[30;1mk[0m| |[7;1m [0m|| 5
[32;1m[Board] [0m  -------------------
[32;1m[Board] [0m4 ||[7;1m [0m| |[7;1m [0m| |[7;1m [0m| |[7;1m [0m| || 4
[32;1m[Board] [0m  -------------------
[32;1m[Board] [0m3 || |[7;1m [0m| |[7;1m [0m|[30;1mb[0m|[7;1m [0m| |[7;1m [0m|| 3
[32;1m[Board] [0m  -------------------
[32;1m[Board] [0m2 ||[7;1m [0m| |[7;1m [0m| |[0;1mK[0m| |[7;1m [0m| || 2
[32;1m[Board] [0m  -------------------
[32;1m[Board] [0m1 || |[7;1m [0m| |[7;1m [0m| |[7;1m [0m|[30;1mr[0m|[7;1m [0m|| 1
[32;1m[Board] [0m  -------------------
[32;1m[Board] [0m    a b c d e f g h
[32;1m[Board] [0m
[32;1m[Referee] [0mThis is the turn of the White player...
Input file: championship/lizzie-iii-bbd/history.csv
Output file: championship/lizzie-iii-bbd/move.csv
Turn of: white
Succesful move
d2d4
8 | R N B Q K B N R 
7 | P P P P P P P P 
6 | _ _ _ _ _ _ _ _ 
5 | _ _ _ _ _ _ _ _ 
4 | _ _ _ P _ _ _ _ 
3 | _ _ _ _ _ _ _ _ 
2 | P P P _ P P P P 
1 | R N B Q K B N R 
-------------------
  | A B C D E F G H 

Turn of: black
Succesful move
g8f6
8 | R N B Q K B _ R 
7 | P P P P P P P P 
6 | _ _ _ _ _ N _ _ 
5 | _ _ _ _ _ _ _ _ 
4 | _ _ _ P _ _ _ _ 
3 | _ _ _ _ _ _ _ _ 
2 | P P P _ P P P P 
1 | R N B Q K B N R 
-------------------
  | A B C D E F G H 

Turn of: white
Succesful move
d1d2
8 | R N B Q K B _ R 
7 | P P P P P P P P 
6 | _ _ _ _ _ N _ _ 
5 | _ _ _ _ _ _ _ _ 
4 | _ _ _ P _ _ _ _ 
3 | _ _ _ _ _ _ _ _ 
2 | P P P Q P P P P 
1 | R N B _ K B N R 
-------------------
  | A B C D E F G H 

Turn of: black
Succesful move
g7g6
8 | R N B Q K B _ R 
7 | P P P P P P _ P 
6 | _ _ _ _ _ N P _ 
5 | _ _ _ _ _ _ _ _ 
4 | _ _ _ P _ _ _ _ 
3 | _ _ _ _ _ _ _ _ 
2 | P P P Q P P P P 
1 | R N B _ K B N R 
-------------------
  | A B C D E F G H 

Turn of: white
Succesful move
h2h4
8 | R N B Q K B _ R 
7 | P P P P P P _ P 
6 | _ _ _ _ _ N P _ 
5 | _ _ _ _ _ _ _ _ 
4 | _ _ _ P _ _ _ P 
3 | _ _ _ _ _ _ _ _ 
2 | P P P Q P P P _ 
1 | R N B _ K B N R 
-------------------
  | A B C D E F G H 

Turn of: black
Succesful move
f6e4
8 | R N B Q K B _ R 
7 | P P P P P P _ P 
6 | _ _ _ _ _ _ P _ 
5 | _ _ _ _ _ _ _ _ 
4 | _ _ _ P N _ _ P 
3 | _ _ _ _ _ _ _ _ 
2 | P P P Q P P P _ 
1 | R N B _ K B N R 
-------------------
  | A B C D E F G H 

Turn of: white
Succesful move
g2g3
8 | R N B Q K B _ R 
7 | P P P P P P _ P 
6 | _ _ _ _ _ _ P _ 
5 | _ _ _ _ _ _ _ _ 
4 | _ _ _ P N _ _ P 
3 | _ _ _ _ _ _ P _ 
2 | P P P Q P P _ _ 
1 | R N B _ K B N R 
-------------------
  | A B C D E F G H 

Turn of: black
Succesful move
e4d2
8 | R N B Q K B _ R 
7 | P P P P P P _ P 
6 | _ _ _ _ _ _ P _ 
5 | _ _ _ _ _ _ _ _ 
4 | _ _ _ P _ _ _ P 
3 | _ _ _ _ _ _ P _ 
2 | P P P N P P _ _ 
1 | R N B _ K B N R 
-------------------
  | A B C D E F G H 

Turn of: white
Succesful move
b1c3
8 | R N B Q K B _ R 
7 | P P P P P P _ P 
6 | _ _ _ _ _ _ P _ 
5 | _ _ _ _ _ _ _ _ 
4 | _ _ _ P _ _ _ P 
3 | _ _ N _ _ _ P _ 
2 | P P P N P P _ _ 
1 | R _ B _ K B N R 
-------------------
  | A B C D E F G H 

Turn of: black
Succesful move
d2f1
8 | R N B Q K B _ R 
7 | P P P P P P _ P 
6 | _ _ _ _ _ _ P _ 
5 | _ _ _ _ _ _ _ _ 
4 | _ _ _ P _ _ _ P 
3 | _ _ N _ _ _ P _ 
2 | P P P _ P P _ _ 
1 | R _ B _ K N N R 
-------------------
  | A B C D E F G H 

Turn of: white
Succesful move
c1e3
8 | R N B Q K B _ R 
7 | P P P P P P _ P 
6 | _ _ _ _ _ _ P _ 
5 | _ _ _ _ _ _ _ _ 
4 | _ _ _ P _ _ _ P 
3 | _ _ N _ B _ P _ 
2 | P P P _ P P _ _ 
1 | R _ _ _ K N N R 
-------------------
  | A B C D E F G H 

Turn of: black
Succesful move
f1e3
8 | R N B Q K B _ R 
7 | P P P P P P _ P 
6 | _ _ _ _ _ _ P _ 
5 | _ _ _ _ _ _ _ _ 
4 | _ _ _ P _ _ _ P 
3 | _ _ N _ N _ P _ 
2 | P P P _ P P _ _ 
1 | R _ _ _ K _ N R 
-------------------
  | A B C D E F G H 

Turn of: white
Succesful move
c3d1
8 | R N B Q K B _ R 
7 | P P P P P P _ P 
6 | _ _ _ _ _ _ P _ 
5 | _ _ _ _ _ _ _ _ 
4 | _ _ _ P _ _ _ P 
3 | _ _ _ _ N _ P _ 
2 | P P P _ P P _ _ 
1 | R _ _ N K _ N R 
-------------------
  | A B C D E F G H 

Turn of: black
Succesful move
e3d1
8 | R N B Q K B _ R 
7 | P P P P P P _ P 
6 | _ _ _ _ _ _ P _ 
5 | _ _ _ _ _ _ _ _ 
4 | _ _ _ P _ _ _ P 
3 | _ _ _ _ _ _ P _ 
2 | P P P _ P P _ _ 
1 | R _ _ N K _ N R 
-------------------
  | A B C D E F G H 

Turn of: white
Succesful move
a2a4
8 | R N B Q K B _ R 
7 | P P P P P P _ P 
6 | _ _ _ _ _ _ P _ 
5 | _ _ _ _ _ _ _ _ 
4 | P _ _ P _ _ _ P 
3 | _ _ _ _ _ _ P _ 
2 | _ P P _ P P _ _ 
1 | R _ _ N K _ N R 
-------------------
  | A B C D E F G H 

Turn of: black
Succesful move
d1b2
8 | R N B Q K B _ R 
7 | P P P P P P _ P 
6 | _ _ _ _ _ _ P _ 
5 | _ _ _ _ _ _ _ _ 
4 | P _ _ P _ _ _ P 
3 | _ _ _ _ _ _ P _ 
2 | _ N P _ P P _ _ 
1 | R _ _ _ K _ N R 
-------------------
  | A B C D E F G H 

Turn of: white
Succesful move
h4h5
8 | R N B Q K B _ R 
7 | P P P P P P _ P 
6 | _ _ _ _ _ _ P _ 
5 | _ _ _ _ _ _ _ P 
4 | P _ _ P _ _ _ _ 
3 | _ _ _ _ _ _ P _ 
2 | _ N P _ P P _ _ 
1 | R _ _ _ K _ N R 
-------------------
  | A B C D E F G H 

Turn of: black
Succesful move
g6h5
8 | R N B Q K B _ R 
7 | P P P P P P _ P 
6 | _ _ _ _ _ _ _ _ 
5 | _ _ _ _ _ _ _ P 
4 | P _ _ P _ _ _ _ 
3 | _ _ _ _ _ _ P _ 
2 | _ N P _ P P _ _ 
1 | R _ _ _ K _ N R 
-------------------
  | A B C D E F G H 

Turn of: white
Succesful move
a1d1
8 | R N B Q K B _ R 
7 | P P P P P P _ P 
6 | _ _ _ _ _ _ _ _ 
5 | _ _ _ _ _ _ _ P 
4 | P _ _ P _ _ _ _ 
3 | _ _ _ _ _ _ P _ 
2 | _ N P _ P P _ _ 
1 | _ _ _ R K _ N R 
-------------------
  | A B C D E F G H 

Turn of: black
Succesful move
b2d1
8 | R N B Q K B _ R 
7 | P P P P P P _ P 
6 | _ _ _ _ _ _ _ _ 
5 | _ _ _ _ _ _ _ P 
4 | P _ _ P _ _ _ _ 
3 | _ _ _ _ _ _ P _ 
2 | _ _ P _ P P _ _ 
1 | _ _ _ N K _ N R 
-------------------
  | A B C D E F G H 

Turn of: white
Succesful move
f2f4
8 | R N B Q K B _ R 
7 | P P P P P P _ P 
6 | _ _ _ _ _ _ _ _ 
5 | _ _ _ _ _ _ _ P 
4 | P _ _ P _ P _ _ 
3 | _ _ _ _ _ _ P _ 
2 | _ _ P _ P _ _ _ 
1 | _ _ _ N K _ N R 
-------------------
  | A B C D E F G H 

Turn of: black
Succesful move
b8c6
8 | R _ B Q K B _ R 
7 | P P P P P P _ P 
6 | _ _ N _ _ _ _ _ 
5 | _ _ _ _ _ _ _ P 
4 | P _ _ P _ P _ _ 
3 | _ _ _ _ _ _ P _ 
2 | _ _ P _ P _ _ _ 
1 | _ _ _ N K _ N R 
-------------------
  | A B C D E F G H 

Turn of: white
Succesful move
c2c3
8 | R _ B Q K B _ R 
7 | P P P P P P _ P 
6 | _ _ N _ _ _ _ _ 
5 | _ _ _ _ _ _ _ P 
4 | P _ _ P _ P _ _ 
3 | _ _ P _ _ _ P _ 
2 | _ _ _ _ P _ _ _ 
1 | _ _ _ N K _ N R 
-------------------
  | A B C D E F G H 

Turn of: black
Succesful move
d1c3
8 | R _ B Q K B _ R 
7 | P P P P P P _ P 
6 | _ _ N _ _ _ _ _ 
5 | _ _ _ _ _ _ _ P 
4 | P _ _ P _ P _ _ 
3 | _ _ N _ _ _ P _ 
2 | _ _ _ _ P _ _ _ 
1 | _ _ _ _ K _ N R 
-------------------
  | A B C D E F G H 

Turn of: white
Succesful move
h1h4
8 | R _ B Q K B _ R 
7 | P P P P P P _ P 
6 | _ _ N _ _ _ _ _ 
5 | _ _ _ _ _ _ _ P 
4 | P _ _ P _ P _ R 
3 | _ _ N _ _ _ P _ 
2 | _ _ _ _ P _ _ _ 
1 | _ _ _ _ K _ N _ 
-------------------
  | A B C D E F G H 

Turn of: black
Succesful move
c6d4
8 | R _ B Q K B _ R 
7 | P P P P P P _ P 
6 | _ _ _ _ _ _ _ _ 
5 | _ _ _ _ _ _ _ P 
4 | P _ _ N _ P _ R 
3 | _ _ N _ _ _ P _ 
2 | _ _ _ _ P _ _ _ 
1 | _ _ _ _ K _ N _ 
-------------------
  | A B C D E F G H 

Turn of: white
Succesful move
g1f3
8 | R _ B Q K B _ R 
7 | P P P P P P _ P 
6 | _ _ _ _ _ _ _ _ 
5 | _ _ _ _ _ _ _ P 
4 | P _ _ N _ P _ R 
3 | _ _ N _ _ N P _ 
2 | _ _ _ _ P _ _ _ 
1 | _ _ _ _ K _ _ _ 
-------------------
  | A B C D E F G H 

Turn of: black
Succesful move
c3e2
8 | R _ B Q K B _ R 
7 | P P P P P P _ P 
6 | _ _ _ _ _ _ _ _ 
5 | _ _ _ _ _ _ _ P 
4 | P _ _ N _ P _ R 
3 | _ _ _ _ _ N P _ 
2 | _ _ _ _ N _ _ _ 
1 | _ _ _ _ K _ _ _ 
-------------------
  | A B C D E F G H 

Turn of: white
Succesful move
h4h5
8 | R _ B Q K B _ R 
7 | P P P P P P _ P 
6 | _ _ _ _ _ _ _ _ 
5 | _ _ _ _ _ _ _ R 
4 | P _ _ N _ P _ _ 
3 | _ _ _ _ _ N P _ 
2 | _ _ _ _ N _ _ _ 
1 | _ _ _ _ K _ _ _ 
-------------------
  | A B C D E F G H 

Turn of: black
Succesful move
e2g3
8 | R _ B Q K B _ R 
7 | P P P P P P _ P 
6 | _ _ _ _ _ _ _ _ 
5 | _ _ _ _ _ _ _ R 
4 | P _ _ N _ P _ _ 
3 | _ _ _ _ _ N N _ 
2 | _ _ _ _ _ _ _ _ 
1 | _ _ _ _ K _ _ _ 
-------------------
  | A B C D E F G H 

Turn of: white
Succesful move
h5e5
8 | R _ B Q K B _ R 
7 | P P P P P P _ P 
6 | _ _ _ _ _ _ _ _ 
5 | _ _ _ _ R _ _ _ 
4 | P _ _ N _ P _ _ 
3 | _ _ _ _ _ N N _ 
2 | _ _ _ _ _ _ _ _ 
1 | _ _ _ _ K _ _ _ 
-------------------
  | A B C D E F G H 

Turn of: black
Succesful move
d4f3
8 | R _ B Q K B _ R 
7 | P P P P P P _ P 
6 | _ _ _ _ _ _ _ _ 
5 | _ _ _ _ R _ _ _ 
4 | P _ _ _ _ P _ _ 
3 | _ _ _ _ _ N N _ 
2 | _ _ _ _ _ _ _ _ 
1 | _ _ _ _ K _ _ _ 
-------------------
  | A B C D E F G H 

Turn of: white
Succesful move
e1f2
8 | R _ B Q K B _ R 
7 | P P P P P P _ P 
6 | _ _ _ _ _ _ _ _ 
5 | _ _ _ _ R _ _ _ 
4 | P _ _ _ _ P _ _ 
3 | _ _ _ _ _ N N _ 
2 | _ _ _ _ _ K _ _ 
1 | _ _ _ _ _ _ _ _ 
-------------------
  | A B C D E F G H 

Turn of: black
Succesful move
f3e5
8 | R _ B Q K B _ R 
7 | P P P P P P _ P 
6 | _ _ _ _ _ _ _ _ 
5 | _ _ _ _ N _ _ _ 
4 | P _ _ _ _ P _ _ 
3 | _ _ _ _ _ _ N _ 
2 | _ _ _ _ _ K _ _ 
1 | _ _ _ _ _ _ _ _ 
-------------------
  | A B C D E F G H 

Turn of: white
Succesful move
f2e3
8 | R _ B Q K B _ R 
7 | P P P P P P _ P 
6 | _ _ _ _ _ _ _ _ 
5 | _ _ _ _ N _ _ _ 
4 | P _ _ _ _ P _ _ 
3 | _ _ _ _ K _ N _ 
2 | _ _ _ _ _ _ _ _ 
1 | _ _ _ _ _ _ _ _ 
-------------------
  | A B C D E F G H 

Turn of: black
Succesful move
f8h6
8 | R _ B Q K _ _ R 
7 | P P P P P P _ P 
6 | _ _ _ _ _ _ _ B 
5 | _ _ _ _ N _ _ _ 
4 | P _ _ _ _ P _ _ 
3 | _ _ _ _ K _ N _ 
2 | _ _ _ _ _ _ _ _ 
1 | _ _ _ _ _ _ _ _ 
-------------------
  | A B C D E F G H 

Turn of: white
Succesful move
a4a5
8 | R _ B Q K _ _ R 
7 | P P P P P P _ P 
6 | _ _ _ _ _ _ _ B 
5 | P _ _ _ N _ _ _ 
4 | _ _ _ _ _ P _ _ 
3 | _ _ _ _ K _ N _ 
2 | _ _ _ _ _ _ _ _ 
1 | _ _ _ _ _ _ _ _ 
-------------------
  | A B C D E F G H 

Turn of: black
Succesful move
g3f5
8 | R _ B Q K _ _ R 
7 | P P P P P P _ P 
6 | _ _ _ _ _ _ _ B 
5 | P _ _ _ N N _ _ 
4 | _ _ _ _ _ P _ _ 
3 | _ _ _ _ K _ _ _ 
2 | _ _ _ _ _ _ _ _ 
1 | _ _ _ _ _ _ _ _ 
-------------------
  | A B C D E F G H 

Turn of: white
Succesful move
e3d2
8 | R _ B Q K _ _ R 
7 | P P P P P P _ P 
6 | _ _ _ _ _ _ _ B 
5 | P _ _ _ N N _ _ 
4 | _ _ _ _ _ P _ _ 
3 | _ _ _ _ _ _ _ _ 
2 | _ _ _ K _ _ _ _ 
1 | _ _ _ _ _ _ _ _ 
-------------------
  | A B C D E F G H 

Turn of: black
Succesful move
h6f4
8 | R _ B Q K _ _ R 
7 | P P P P P P _ P 
6 | _ _ _ _ _ _ _ _ 
5 | P _ _ _ N N _ _ 
4 | _ _ _ _ _ B _ _ 
3 | _ _ _ _ _ _ _ _ 
2 | _ _ _ K _ _ _ _ 
1 | _ _ _ _ _ _ _ _ 
-------------------
  | A B C D E F G H 

Turn of: white
Succesful move
d2e1
8 | R _ B Q K _ _ R 
7 | P P P P P P _ P 
6 | _ _ _ _ _ _ _ _ 
5 | P _ _ _ N N _ _ 
4 | _ _ _ _ _ B _ _ 
3 | _ _ _ _ _ _ _ _ 
2 | _ _ _ _ _ _ _ _ 
1 | _ _ _ _ K _ _ _ 
-------------------
  | A B C D E F G H 

Turn of: black
Succesful move
e8f8
8 | R _ B Q _ K _ R 
7 | P P P P P P _ P 
6 | _ _ _ _ _ _ _ _ 
5 | P _ _ _ N N _ _ 
4 | _ _ _ _ _ B _ _ 
3 | _ _ _ _ _ _ _ _ 
2 | _ _ _ _ _ _ _ _ 
1 | _ _ _ _ K _ _ _ 
-------------------
  | A B C D E F G H 

Turn of: white
Succesful move
e1f2
8 | R _ B Q _ K _ R 
7 | P P P P P P _ P 
6 | _ _ _ _ _ _ _ _ 
5 | P _ _ _ N N _ _ 
4 | _ _ _ _ _ B _ _ 
3 | _ _ _ _ _ _ _ _ 
2 | _ _ _ _ _ K _ _ 
1 | _ _ _ _ _ _ _ _ 
-------------------
  | A B C D E F G H 

Turn of: black
Succesful move
d8e8
8 | R _ B _ Q K _ R 
7 | P P P P P P _ P 
6 | _ _ _ _ _ _ _ _ 
5 | P _ _ _ N N _ _ 
4 | _ _ _ _ _ B _ _ 
3 | _ _ _ _ _ _ _ _ 
2 | _ _ _ _ _ K _ _ 
1 | _ _ _ _ _ _ _ _ 
-------------------
  | A B C D E F G H 

Turn of: white
Succesful move
f2g1
8 | R _ B _ Q K _ R 
7 | P P P P P P _ P 
6 | _ _ _ _ _ _ _ _ 
5 | P _ _ _ N N _ _ 
4 | _ _ _ _ _ B _ _ 
3 | _ _ _ _ _ _ _ _ 
2 | _ _ _ _ _ _ _ _ 
1 | _ _ _ _ _ _ K _ 
-------------------
  | A B C D E F G H 

Turn of: black
Succesful move
h8g8
8 | R _ B _ Q K R _ 
7 | P P P P P P _ P 
6 | _ _ _ _ _ _ _ _ 
5 | P _ _ _ N N _ _ 
4 | _ _ _ _ _ B _ _ 
3 | _ _ _ _ _ _ _ _ 
2 | _ _ _ _ _ _ _ _ 
1 | _ _ _ _ _ _ K _ 
-------------------
  | A B C D E F G H 

Turn of: white
Succesful move
g1f2
8 | R _ B _ Q K R _ 
7 | P P P P P P _ P 
6 | _ _ _ _ _ _ _ _ 
5 | P _ _ _ N N _ _ 
4 | _ _ _ _ _ B _ _ 
3 | _ _ _ _ _ _ _ _ 
2 | _ _ _ _ _ K _ _ 
1 | _ _ _ _ _ _ _ _ 
-------------------
  | A B C D E F G H 

Turn of: black
Succesful move
f4e3
8 | R _ B _ Q K R _ 
7 | P P P P P P _ P 
6 | _ _ _ _ _ _ _ _ 
5 | P _ _ _ N N _ _ 
4 | _ _ _ _ _ _ _ _ 
3 | _ _ _ _ B _ _ _ 
2 | _ _ _ _ _ K _ _ 
1 | _ _ _ _ _ _ _ _ 
-------------------
  | A B C D E F G H 

Turn of: white
Succesful move
f2f1
8 | R _ B _ Q K R _ 
7 | P P P P P P _ P 
6 | _ _ _ _ _ _ _ _ 
5 | P _ _ _ N N _ _ 
4 | _ _ _ _ _ _ _ _ 
3 | _ _ _ _ B _ _ _ 
2 | _ _ _ _ _ _ _ _ 
1 | _ _ _ _ _ K _ _ 
-------------------
  | A B C D E F G H 

Turn of: black
Succesful move
g8g1
8 | R _ B _ Q K _ _ 
7 | P P P P P P _ P 
6 | _ _ _ _ _ _ _ _ 
5 | P _ _ _ N N _ _ 
4 | _ _ _ _ _ _ _ _ 
3 | _ _ _ _ B _ _ _ 
2 | _ _ _ _ _ _ _ _ 
1 | _ _ _ _ _ K R _ 
-------------------
  | A B C D E F G H 

Turn of: white
Succesful move
f1e2
8 | R _ B _ Q K _ _ 
7 | P P P P P P _ P 
6 | _ _ _ _ _ _ _ _ 
5 | P _ _ _ N N _ _ 
4 | _ _ _ _ _ _ _ _ 
3 | _ _ _ _ B _ _ _ 
2 | _ _ _ _ K _ _ _ 
1 | _ _ _ _ _ _ R _ 
-------------------
  | A B C D E F G H 

Turn of: black
Succesful move
d7d6
8 | R _ B _ Q K _ _ 
7 | P P P _ P P _ P 
6 | _ _ _ P _ _ _ _ 
5 | P _ _ _ N N _ _ 
4 | _ _ _ _ _ _ _ _ 
3 | _ _ _ _ B _ _ _ 
2 | _ _ _ _ K _ _ _ 
1 | _ _ _ _ _ _ R _ 
-------------------
  | A B C D E F G H 

We are playing as White
Move history:
d2d4
g8f6
d1d2
g7g6
h2h4
f6e4
g2g3
e4d2
b1c3
d2f1
c1e3
f1e3
c3d1
e3d1
a2a4
d1b2
h4h5
g6h5
a1d1
b2d1
f2f4
b8c6
c2c3
d1c3
h1h4
c6d4
g1f3
c3e2
h4h5
e2g3
h5e5
d4f3
e1f2
f3e5
f2e3
f8h6
a4a5
g3f5
e3d2
h6f4
d2e1
e8f8
e1f2
d8e8
f2g1
h8g8
g1f2
f4e3
f2f1
g8g1
f1e2
d7d6
8 | R _ B _ Q K _ _ 
7 | P P P _ P P _ P 
6 | _ _ _ P _ _ _ _ 
5 | P _ _ _ N N _ _ 
4 | _ _ _ _ _ _ _ _ 
3 | _ _ _ _ B _ _ _ 
2 | _ _ _ _ K _ _ _ 
1 | _ _ _ _ _ _ R _ 
-------------------
  | A B C D E F G H 

It is white's turn to play.
AI's move: a5a6
Move written: a5a6
[32;1m[Game] [0mPlayer's error code: 0
[32;1m[Game] [0mChecking move validity...
[32;1m[Board] [0mInitializing board...
[32;1m[Board] [0mLoading history file `championship/lizzie-iii-bbd/history.csv`...
[32;1m[Board] [0mLoaded 52 move(s).
[32;1m[Board] [0mLoading move file `championship/lizzie-iii-bbd/move.csv`...
[32;1m[Board] [0mWhite player is playing a5 to a6.
[32;1m[Board] [0m
[32;1m[Board] [0m    a b c d e f g h 
[32;1m[Board] [0m  -------------------
[32;1m[Board] [0m8 ||[30;1mr[0m| |[30;1mb[0m| |[30;1mQ[0m|[30;1mK[0m|[7;1m [0m| || 8
[32;1m[Board] [0m  -------------------
[32;1m[Board] [0m7 ||[30;1mp[0m|[30;1mp[0m|[30;1mp[0m|[7;1m [0m|[30;1mp[0m|[30;1mp[0m| |[30;1mp[0m|| 7
[32;1m[Board] [0m  -------------------
[32;1m[Board] [0m6 ||[0;1mp[0m| |[7;1m [0m|[30;1mp[0m|[7;1m [0m| |[7;1m [0m| || 6
[32;1m[Board] [0m  -------------------
[32;1m[Board] [0m5 || |[7;1m [0m| |[7;1m [0m|[30;1mk[0m|[30;1mk[0m| |[7;1m [0m|| 5
[32;1m[Board] [0m  -------------------
[32;1m[Board] [0m4 ||[7;1m [0m| |[7;1m [0m| |[7;1m [0m| |[7;1m [0m| || 4
[32;1m[Board] [0m  -------------------
[32;1m[Board] [0m3 || |[7;1m [0m| |[7;1m [0m|[30;1mb[0m|[7;1m [0m| |[7;1m [0m|| 3
[32;1m[Board] [0m  -------------------
[32;1m[Board] [0m2 ||[7;1m [0m| |[7;1m [0m| |[0;1mK[0m| |[7;1m [0m| || 2
[32;1m[Board] [0m  -------------------
[32;1m[Board] [0m1 || |[7;1m [0m| |[7;1m [0m| |[7;1m [0m|[30;1mr[0m|[7;1m [0m|| 1
[32;1m[Board] [0m  -------------------
[32;1m[Board] [0m    a b c d e f g h
[32;1m[Board] [0m
[32;1m[Referee] [0mThis is the turn of the Black player...
info score 4642 depth 1 nodes 124 time 0
info score 31999 depth 2 nodes 286 time 0
info score 31999 depth 3 nodes 3048 time 5
info score 31999 depth 4 nodes 9989 time 18
info score 31999 depth 5 nodes 146740 time 260
info score 31999 depth 6 nodes 473877 time 851
bestmove e8b5
[32;1m[Game] [0mPlayer's error code: 0
[32;1m[Game] [0mChecking move validity...
[32;1m[Board] [0mInitializing board...
[32;1m[Board] [0mLoading history file `championship/lizzie-iii-bbd/history.csv`...
[32;1m[Board] [0mLoaded 53 move(s).
[32;1m[Board] [0mLoading move file `championship/lizzie-iii-bbd/move.csv`...
[32;1m[Board] [0mBlack player is playing e8 to b5.
[32;1m[Board] [0m
[32;1m[Board] [0m    a b c d e f g h 
[32;1m[Board] [0m  -------------------
[32;1m[Board] [0m8 ||[30;1mr[0m| |[30;1mb[0m| |[7;1m [0m|[30;1mK[0m|[7;1m [0m| || 8
[32;1m[Board] [0m  -------------------
[32;1m[Board] [0m7 ||[30;1mp[0m|[30;1mp[0m|[30;1mp[0m|[7;1m [0m|[30;1mp[0m|[30;1mp[0m| |[30;1mp[0m|| 7
[32;1m[Board] [0m  -------------------
[32;1m[Board] [0m6 ||[0;1mp[0m| |[7;1m [0m|[30;1mp[0m|[7;1m [0m| |[7;1m [0m| || 6
[32;1m[Board] [0m  -------------------
[32;1m[Board] [0m5 || |[30;1mQ[0m| |[7;1m [0m|[30;1mk[0m|[30;1mk[0m| |[7;1m [0m|| 5
[32;1m[Board] [0m  -------------------
[32;1m[Board] [0m4 ||[7;1m [0m| |[7;1m [0m| |[7;1m [0m| |[7;1m [0m| || 4
[32;1m[Board] [0m  -------------------
[32;1m[Board] [0m3 || |[7;1m [0m| |[7;1m [0m|[30;1mb[0m|[7;1m [0m| |[7;1m [0m|| 3
[32;1m[Board] [0m  -------------------
[32;1m[Board] [0m2 ||[7;1m [0m| |[7;1m [0m| |[0;1mK[0m| |[7;1m [0m| || 2
[32;1m[Board] [0m  -------------------
[32;1m[Board] [0m1 || |[7;1m [0m| |[7;1m [0m| |[7;1m [0m|[30;1mr[0m|[7;1m [0m|| 1
[32;1m[Board] [0m  -------------------
[32;1m[Board] [0m    a b c d e f g h
[32;1m[Board] [0m
[32;1m[Referee] [0mThis is the turn of the White player...
[32;1m[Board] [0m[33;1m[WARNING][0m [5;1mWhite King in checkmate![0m
[32;1m[Board] [0m[33;1m[WARNING][0m The Black player wins!
