[32;1m[Board] [0mInitializing board...
[32;1m[Board] [0m
[32;1m[Board] [0m    a b c d e f g h 
[32;1m[Board] [0m  -------------------
[32;1m[Board] [0m8 ||[30;1mr[0m|[30;1mk[0m|[30;1mb[0m|[30;1mQ[0m|[30;1mK[0m|[30;1mb[0m|[30;1mk[0m|[30;1mr[0m|| 8
[32;1m[Board] [0m  -------------------
[32;1m[Board] [0m7 ||[30;1mp[0m|[30;1mp[0m|[30;1mp[0m|[30;1mp[0m|[30;1mp[0m|[30;1mp[0m|[30;1mp[0m|[30;1mp[0m|| 7
[32;1m[Board] [0m  -------------------
[32;1m[Board] [0m6 ||[7;1m [0m| |[7;1m [0m| |[7;1m [0m| |[7;1m [0m| || 6
[32;1m[Board] [0m  -------------------
[32;1m[Board] [0m5 || |[7;1m [0m| |[7;1m [0m| |[7;1m [0m| |[7;1m [0m|| 5
[32;1m[Board] [0m  -------------------
[32;1m[Board] [0m4 ||[7;1m [0m| |[7;1m [0m| |[7;1m [0m| |[7;1m [0m| || 4
[32;1m[Board] [0m  -------------------
[32;1m[Board] [0m3 || |[7;1m [0m| |[7;1m [0m| |[7;1m [0m| |[7;1m [0m|| 3
[32;1m[Board] [0m  -------------------
[32;1m[Board] [0m2 ||[0;1mp[0m|[0;1mp[0m|[0;1mp[0m|[0;1mp[0m|[0;1mp[0m|[0;1mp[0m|[0;1mp[0m|[0;1mp[0m|| 2
[32;1m[Board] [0m  -------------------
[32;1m[Board] [0m1 ||[0;1mr[0m|[0;1mk[0m|[0;1mb[0m|[0;1mQ[0m|[0;1mK[0m|[0;1mb[0m|[0;1mk[0m|[0;1mr[0m|| 1
[32;1m[Board] [0m  -------------------
[32;1m[Board] [0m    a b c d e f g h
[32;1m[Board] [0m
[32;1m[Referee] [0mThis is the turn of the White player...
Input file: championship/lizzie-iii-bbd/history.csv
Output file: championship/lizzie-iii-bbd/move.csv
We are playing as White
Move history:
8 | R N B Q K B N R 
7 | P P P P P P P P 
6 | _ _ _ _ _ _ _ _ 
5 | _ _ _ _ _ _ _ _ 
4 | _ _ _ _ _ _ _ _ 
3 | _ _ _ _ _ _ _ _ 
2 | P P P P P P P P 
1 | R N B Q K B N R 
-------------------
  | A B C D E F G H 

It is white's turn to play.
AI's move: d2d4
Move written: d2d4
[32;1m[Game] [0mPlayer's error code: 0
[32;1m[Game] [0mChecking move validity...
[32;1m[Board] [0mInitializing board...
[32;1m[Board] [0mLoading history file `championship/lizzie-iii-bbd/history.csv`...
[32;1m[Board] [0mLoaded 0 move(s).
[32;1m[Board] [0mLoading move file `championship/lizzie-iii-bbd/move.csv`...
[32;1m[Board] [0mWhite player is playing d2 to d4.
[32;1m[Board] [0m
[32;1m[Board] [0m    a b c d e f g h 
[32;1m[Board] [0m  -------------------
[32;1m[Board] [0m8 ||[30;1mr[0m|[30;1mk[0m|[30;1mb[0m|[30;1mQ[0m|[30;1mK[0m|[30;1mb[0m|[30;1mk[0m|[30;1mr[0m|| 8
[32;1m[Board] [0m  -------------------
[32;1m[Board] [0m7 ||[30;1mp[0m|[30;1mp[0m|[30;1mp[0m|[30;1mp[0m|[30;1mp[0m|[30;1mp[0m|[30;1mp[0m|[30;1mp[0m|| 7
[32;1m[Board] [0m  -------------------
[32;1m[Board] [0m6 ||[7;1m [0m| |[7;1m [0m| |[7;1m [0m| |[7;1m [0m| || 6
[32;1m[Board] [0m  -------------------
[32;1m[Board] [0m5 || |[7;1m [0m| |[7;1m [0m| |[7;1m [0m| |[7;1m [0m|| 5
[32;1m[Board] [0m  -------------------
[32;1m[Board] [0m4 ||[7;1m [0m| |[7;1m [0m|[0;1mp[0m|[7;1m [0m| |[7;1m [0m| || 4
[32;1m[Board] [0m  -------------------
[32;1m[Board] [0m3 || |[7;1m [0m| |[7;1m [0m| |[7;1m [0m| |[7;1m [0m|| 3
[32;1m[Board] [0m  -------------------
[32;1m[Board] [0m2 ||[0;1mp[0m|[0;1mp[0m|[0;1mp[0m| |[0;1mp[0m|[0;1mp[0m|[0;1mp[0m|[0;1mp[0m|| 2
[32;1m[Board] [0m  -------------------
[32;1m[Board] [0m1 ||[0;1mr[0m|[0;1mk[0m|[0;1mb[0m|[0;1mQ[0m|[0;1mK[0m|[0;1mb[0m|[0;1mk[0m|[0;1mr[0m|| 1
[32;1m[Board] [0m  -------------------
[32;1m[Board] [0m    a b c d e f g h
[32;1m[Board] [0m
[32;1m[Referee] [0mThis is the turn of the Black player...
info score 218 depth 1 nodes 26 time 0
info score 74 depth 2 nodes 440 time 0
info score 178 depth 3 nodes 2173 time 4
info score 74 depth 4 nodes 4379 time 8
info score 65 depth 5 nodes 36232 time 71
info score -35 depth 6 nodes 118483 time 237
info score 18 depth 7 nodes 858685 time 1744
bestmove g8f6
[32;1m[Game] [0mPlayer's error code: 0
[32;1m[Game] [0mChecking move validity...
[32;1m[Board] [0mInitializing board...
[32;1m[Board] [0mLoading history file `championship/lizzie-iii-bbd/history.csv`...
[32;1m[Board] [0mLoaded 1 move(s).
[32;1m[Board] [0mLoading move file `championship/lizzie-iii-bbd/move.csv`...
[32;1m[Board] [0mBlack player is playing g8 to f6.
[32;1m[Board] [0m
[32;1m[Board] [0m    a b c d e f g h 
[32;1m[Board] [0m  -------------------
[32;1m[Board] [0m8 ||[30;1mr[0m|[30;1mk[0m|[30;1mb[0m|[30;1mQ[0m|[30;1mK[0m|[30;1mb[0m|[7;1m [0m|[30;1mr[0m|| 8
[32;1m[Board] [0m  -------------------
[32;1m[Board] [0m7 ||[30;1mp[0m|[30;1mp[0m|[30;1mp[0m|[30;1mp[0m|[30;1mp[0m|[30;1mp[0m|[30;1mp[0m|[30;1mp[0m|| 7
[32;1m[Board] [0m  -------------------
[32;1m[Board] [0m6 ||[7;1m [0m| |[7;1m [0m| |[7;1m [0m|[30;1mk[0m|[7;1m [0m| || 6
[32;1m[Board] [0m  -------------------
[32;1m[Board] [0m5 || |[7;1m [0m| |[7;1m [0m| |[7;1m [0m| |[7;1m [0m|| 5
[32;1m[Board] [0m  -------------------
[32;1m[Board] [0m4 ||[7;1m [0m| |[7;1m [0m|[0;1mp[0m|[7;1m [0m| |[7;1m [0m| || 4
[32;1m[Board] [0m  -------------------
[32;1m[Board] [0m3 || |[7;1m [0m| |[7;1m [0m| |[7;1m [0m| |[7;1m [0m|| 3
[32;1m[Board] [0m  -------------------
[32;1m[Board] [0m2 ||[0;1mp[0m|[0;1mp[0m|[0;1mp[0m| |[0;1mp[0m|[0;1mp[0m|[0;1mp[0m|[0;1mp[0m|| 2
[32;1m[Board] [0m  -------------------
[32;1m[Board] [0m1 ||[0;1mr[0m|[0;1mk[0m|[0;1mb[0m|[0;1mQ[0m|[0;1mK[0m|[0;1mb[0m|[0;1mk[0m|[0;1mr[0m|| 1
[32;1m[Board] [0m  -------------------
[32;1m[Board] [0m    a b c d e f g h
[32;1m[Board] [0m
[32;1m[Referee] [0mThis is the turn of the White player...
Input file: championship/lizzie-iii-bbd/history.csv
Output file: championship/lizzie-iii-bbd/move.csv
Turn of: white
Succesful move
d2d4
8 | R N B Q K B N R 
7 | P P P P P P P P 
6 | _ _ _ _ _ _ _ _ 
5 | _ _ _ _ _ _ _ _ 
4 | _ _ _ P _ _ _ _ 
3 | _ _ _ _ _ _ _ _ 
2 | P P P _ P P P P 
1 | R N B Q K B N R 
-------------------
  | A B C D E F G H 

Turn of: black
Succesful move
g8f6
8 | R N B Q K B _ R 
7 | P P P P P P P P 
6 | _ _ _ _ _ N _ _ 
5 | _ _ _ _ _ _ _ _ 
4 | _ _ _ P _ _ _ _ 
3 | _ _ _ _ _ _ _ _ 
2 | P P P _ P P P P 
1 | R N B Q K B N R 
-------------------
  | A B C D E F G H 

We are playing as White
Move history:
d2d4
g8f6
8 | R N B Q K B _ R 
7 | P P P P P P P P 
6 | _ _ _ _ _ N _ _ 
5 | _ _ _ _ _ _ _ _ 
4 | _ _ _ P _ _ _ _ 
3 | _ _ _ _ _ _ _ _ 
2 | P P P _ P P P P 
1 | R N B Q K B N R 
-------------------
  | A B C D E F G H 

It is white's turn to play.
AI's move: c2c3
Move written: c2c3
[32;1m[Game] [0mPlayer's error code: 0
[32;1m[Game] [0mChecking move validity...
[32;1m[Board] [0mInitializing board...
[32;1m[Board] [0mLoading history file `championship/lizzie-iii-bbd/history.csv`...
[32;1m[Board] [0mLoaded 2 move(s).
[32;1m[Board] [0mLoading move file `championship/lizzie-iii-bbd/move.csv`...
[32;1m[Board] [0mWhite player is playing c2 to c3.
[32;1m[Board] [0m
[32;1m[Board] [0m    a b c d e f g h 
[32;1m[Board] [0m  -------------------
[32;1m[Board] [0m8 ||[30;1mr[0m|[30;1mk[0m|[30;1mb[0m|[30;1mQ[0m|[30;1mK[0m|[30;1mb[0m|[7;1m [0m|[30;1mr[0m|| 8
[32;1m[Board] [0m  -------------------
[32;1m[Board] [0m7 ||[30;1mp[0m|[30;1mp[0m|[30;1mp[0m|[30;1mp[0m|[30;1mp[0m|[30;1mp[0m|[30;1mp[0m|[30;1mp[0m|| 7
[32;1m[Board] [0m  -------------------
[32;1m[Board] [0m6 ||[7;1m [0m| |[7;1m [0m| |[7;1m [0m|[30;1mk[0m|[7;1m [0m| || 6
[32;1m[Board] [0m  -------------------
[32;1m[Board] [0m5 || |[7;1m [0m| |[7;1m [0m| |[7;1m [0m| |[7;1m [0m|| 5
[32;1m[Board] [0m  -------------------
[32;1m[Board] [0m4 ||[7;1m [0m| |[7;1m [0m|[0;1mp[0m|[7;1m [0m| |[7;1m [0m| || 4
[32;1m[Board] [0m  -------------------
[32;1m[Board] [0m3 || |[7;1m [0m|[0;1mp[0m|[7;1m [0m| |[7;1m [0m| |[7;1m [0m|| 3
[32;1m[Board] [0m  -------------------
[32;1m[Board] [0m2 ||[0;1mp[0m|[0;1mp[0m|[7;1m [0m| |[0;1mp[0m|[0;1mp[0m|[0;1mp[0m|[0;1mp[0m|| 2
[32;1m[Board] [0m  -------------------
[32;1m[Board] [0m1 ||[0;1mr[0m|[0;1mk[0m|[0;1mb[0m|[0;1mQ[0m|[0;1mK[0m|[0;1mb[0m|[0;1mk[0m|[0;1mr[0m|| 1
[32;1m[Board] [0m  -------------------
[32;1m[Board] [0m    a b c d e f g h
[32;1m[Board] [0m
[32;1m[Referee] [0mThis is the turn of the Black player...
info score 379 depth 1 nodes 27 time 0
info score 235 depth 2 nodes 397 time 1
info score 236 depth 3 nodes 2381 time 6
info score 120 depth 4 nodes 5290 time 14
info score 176 depth 5 nodes 33088 time 83
info score 72 depth 6 nodes 221940 time 577
bestmove b8c6
[32;1m[Game] [0mPlayer's error code: 0
[32;1m[Game] [0mChecking move validity...
[32;1m[Board] [0mInitializing board...
[32;1m[Board] [0mLoading history file `championship/lizzie-iii-bbd/history.csv`...
[32;1m[Board] [0mLoaded 3 move(s).
[32;1m[Board] [0mLoading move file `championship/lizzie-iii-bbd/move.csv`...
[32;1m[Board] [0mBlack player is playing b8 to c6.
[32;1m[Board] [0m
[32;1m[Board] [0m    a b c d e f g h 
[32;1m[Board] [0m  -------------------
[32;1m[Board] [0m8 ||[30;1mr[0m| |[30;1mb[0m|[30;1mQ[0m|[30;1mK[0m|[30;1mb[0m|[7;1m [0m|[30;1mr[0m|| 8
[32;1m[Board] [0m  -------------------
[32;1m[Board] [0m7 ||[30;1mp[0m|[30;1mp[0m|[30;1mp[0m|[30;1mp[0m|[30;1mp[0m|[30;1mp[0m|[30;1mp[0m|[30;1mp[0m|| 7
[32;1m[Board] [0m  -------------------
[32;1m[Board] [0m6 ||[7;1m [0m| |[30;1mk[0m| |[7;1m [0m|[30;1mk[0m|[7;1m [0m| || 6
[32;1m[Board] [0m  -------------------
[32;1m[Board] [0m5 || |[7;1m [0m| |[7;1m [0m| |[7;1m [0m| |[7;1m [0m|| 5
[32;1m[Board] [0m  -------------------
[32;1m[Board] [0m4 ||[7;1m [0m| |[7;1m [0m|[0;1mp[0m|[7;1m [0m| |[7;1m [0m| || 4
[32;1m[Board] [0m  -------------------
[32;1m[Board] [0m3 || |[7;1m [0m|[0;1mp[0m|[7;1m [0m| |[7;1m [0m| |[7;1m [0m|| 3
[32;1m[Board] [0m  -------------------
[32;1m[Board] [0m2 ||[0;1mp[0m|[0;1mp[0m|[7;1m [0m| |[0;1mp[0m|[0;1mp[0m|[0;1mp[0m|[0;1mp[0m|| 2
[32;1m[Board] [0m  -------------------
[32;1m[Board] [0m1 ||[0;1mr[0m|[0;1mk[0m|[0;1mb[0m|[0;1mQ[0m|[0;1mK[0m|[0;1mb[0m|[0;1mk[0m|[0;1mr[0m|| 1
[32;1m[Board] [0m  -------------------
[32;1m[Board] [0m    a b c d e f g h
[32;1m[Board] [0m
[32;1m[Referee] [0mThis is the turn of the White player...
Input file: championship/lizzie-iii-bbd/history.csv
Output file: championship/lizzie-iii-bbd/move.csv
Turn of: white
Succesful move
d2d4
8 | R N B Q K B N R 
7 | P P P P P P P P 
6 | _ _ _ _ _ _ _ _ 
5 | _ _ _ _ _ _ _ _ 
4 | _ _ _ P _ _ _ _ 
3 | _ _ _ _ _ _ _ _ 
2 | P P P _ P P P P 
1 | R N B Q K B N R 
-------------------
  | A B C D E F G H 

Turn of: black
Succesful move
g8f6
8 | R N B Q K B _ R 
7 | P P P P P P P P 
6 | _ _ _ _ _ N _ _ 
5 | _ _ _ _ _ _ _ _ 
4 | _ _ _ P _ _ _ _ 
3 | _ _ _ _ _ _ _ _ 
2 | P P P _ P P P P 
1 | R N B Q K B N R 
-------------------
  | A B C D E F G H 

Turn of: white
Succesful move
c2c3
8 | R N B Q K B _ R 
7 | P P P P P P P P 
6 | _ _ _ _ _ N _ _ 
5 | _ _ _ _ _ _ _ _ 
4 | _ _ _ P _ _ _ _ 
3 | _ _ P _ _ _ _ _ 
2 | P P _ _ P P P P 
1 | R N B Q K B N R 
-------------------
  | A B C D E F G H 

Turn of: black
Succesful move
b8c6
8 | R _ B Q K B _ R 
7 | P P P P P P P P 
6 | _ _ N _ _ N _ _ 
5 | _ _ _ _ _ _ _ _ 
4 | _ _ _ P _ _ _ _ 
3 | _ _ P _ _ _ _ _ 
2 | P P _ _ P P P P 
1 | R N B Q K B N R 
-------------------
  | A B C D E F G H 

We are playing as White
Move history:
d2d4
g8f6
c2c3
b8c6
8 | R _ B Q K B _ R 
7 | P P P P P P P P 
6 | _ _ N _ _ N _ _ 
5 | _ _ _ _ _ _ _ _ 
4 | _ _ _ P _ _ _ _ 
3 | _ _ P _ _ _ _ _ 
2 | P P _ _ P P P P 
1 | R N B Q K B N R 
-------------------
  | A B C D E F G H 

It is white's turn to play.
AI's move: d1a4
Move written: d1a4
[32;1m[Game] [0mPlayer's error code: 0
[32;1m[Game] [0mChecking move validity...
[32;1m[Board] [0mInitializing board...
[32;1m[Board] [0mLoading history file `championship/lizzie-iii-bbd/history.csv`...
[32;1m[Board] [0mLoaded 4 move(s).
[32;1m[Board] [0mLoading move file `championship/lizzie-iii-bbd/move.csv`...
[32;1m[Board] [0mWhite player is playing d1 to a4.
[32;1m[Board] [0m
[32;1m[Board] [0m    a b c d e f g h 
[32;1m[Board] [0m  -------------------
[32;1m[Board] [0m8 ||[30;1mr[0m| |[30;1mb[0m|[30;1mQ[0m|[30;1mK[0m|[30;1mb[0m|[7;1m [0m|[30;1mr[0m|| 8
[32;1m[Board] [0m  -------------------
[32;1m[Board] [0m7 ||[30;1mp[0m|[30;1mp[0m|[30;1mp[0m|[30;1mp[0m|[30;1mp[0m|[30;1mp[0m|[30;1mp[0m|[30;1mp[0m|| 7
[32;1m[Board] [0m  -------------------
[32;1m[Board] [0m6 ||[7;1m [0m| |[30;1mk[0m| |[7;1m [0m|[30;1mk[0m|[7;1m [0m| || 6
[32;1m[Board] [0m  -------------------
[32;1m[Board] [0m5 || |[7;1m [0m| |[7;1m [0m| |[7;1m [0m| |[7;1m [0m|| 5
[32;1m[Board] [0m  -------------------
[32;1m[Board] [0m4 ||[0;1mQ[0m| |[7;1m [0m|[0;1mp[0m|[7;1m [0m| |[7;1m [0m| || 4
[32;1m[Board] [0m  -------------------
[32;1m[Board] [0m3 || |[7;1m [0m|[0;1mp[0m|[7;1m [0m| |[7;1m [0m| |[7;1m [0m|| 3
[32;1m[Board] [0m  -------------------
[32;1m[Board] [0m2 ||[0;1mp[0m|[0;1mp[0m|[7;1m [0m| |[0;1mp[0m|[0;1mp[0m|[0;1mp[0m|[0;1mp[0m|| 2
[32;1m[Board] [0m  -------------------
[32;1m[Board] [0m1 ||[0;1mr[0m|[0;1mk[0m|[0;1mb[0m|[7;1m [0m|[0;1mK[0m|[0;1mb[0m|[0;1mk[0m|[0;1mr[0m|| 1
[32;1m[Board] [0m  -------------------
[32;1m[Board] [0m    a b c d e f g h
[32;1m[Board] [0m
[32;1m[Referee] [0mThis is the turn of the Black player...
info score 428 depth 1 nodes 124 time 0
info score 284 depth 2 nodes 968 time 2
info score 350 depth 3 nodes 6112 time 14
info score 229 depth 4 nodes 25202 time 61
info score 237 depth 5 nodes 113220 time 276
bestmove e7e6
[32;1m[Game] [0mPlayer's error code: 0
[32;1m[Game] [0mChecking move validity...
[32;1m[Board] [0mInitializing board...
[32;1m[Board] [0mLoading history file `championship/lizzie-iii-bbd/history.csv`...
[32;1m[Board] [0mLoaded 5 move(s).
[32;1m[Board] [0mLoading move file `championship/lizzie-iii-bbd/move.csv`...
[32;1m[Board] [0mBlack player is playing e7 to e6.
[32;1m[Board] [0m
[32;1m[Board] [0m    a b c d e f g h 
[32;1m[Board] [0m  -------------------
[32;1m[Board] [0m8 ||[30;1mr[0m| |[30;1mb[0m|[30;1mQ[0m|[30;1mK[0m|[30;1mb[0m|[7;1m [0m|[30;1mr[0m|| 8
[32;1m[Board] [0m  -------------------
[32;1m[Board] [0m7 ||[30;1mp[0m|[30;1mp[0m|[30;1mp[0m|[30;1mp[0m| |[30;1mp[0m|[30;1mp[0m|[30;1mp[0m|| 7
[32;1m[Board] [0m  -------------------
[32;1m[Board] [0m6 ||[7;1m [0m| |[30;1mk[0m| |[30;1mp[0m|[30;1mk[0m|[7;1m [0m| || 6
[32;1m[Board] [0m  -------------------
[32;1m[Board] [0m5 || |[7;1m [0m| |[7;1m [0m| |[7;1m [0m| |[7;1m [0m|| 5
[32;1m[Board] [0m  -------------------
[32;1m[Board] [0m4 ||[0;1mQ[0m| |[7;1m [0m|[0;1mp[0m|[7;1m [0m| |[7;1m [0m| || 4
[32;1m[Board] [0m  -------------------
[32;1m[Board] [0m3 || |[7;1m [0m|[0;1mp[0m|[7;1m [0m| |[7;1m [0m| |[7;1m [0m|| 3
[32;1m[Board] [0m  -------------------
[32;1m[Board] [0m2 ||[0;1mp[0m|[0;1mp[0m|[7;1m [0m| |[0;1mp[0m|[0;1mp[0m|[0;1mp[0m|[0;1mp[0m|| 2
[32;1m[Board] [0m  -------------------
[32;1m[Board] [0m1 ||[0;1mr[0m|[0;1mk[0m|[0;1mb[0m|[7;1m [0m|[0;1mK[0m|[0;1mb[0m|[0;1mk[0m|[0;1mr[0m|| 1
[32;1m[Board] [0m  -------------------
[32;1m[Board] [0m    a b c d e f g h
[32;1m[Board] [0m
[32;1m[Referee] [0mThis is the turn of the White player...
Input file: championship/lizzie-iii-bbd/history.csv
Output file: championship/lizzie-iii-bbd/move.csv
Turn of: white
Succesful move
d2d4
8 | R N B Q K B N R 
7 | P P P P P P P P 
6 | _ _ _ _ _ _ _ _ 
5 | _ _ _ _ _ _ _ _ 
4 | _ _ _ P _ _ _ _ 
3 | _ _ _ _ _ _ _ _ 
2 | P P P _ P P P P 
1 | R N B Q K B N R 
-------------------
  | A B C D E F G H 

Turn of: black
Succesful move
g8f6
8 | R N B Q K B _ R 
7 | P P P P P P P P 
6 | _ _ _ _ _ N _ _ 
5 | _ _ _ _ _ _ _ _ 
4 | _ _ _ P _ _ _ _ 
3 | _ _ _ _ _ _ _ _ 
2 | P P P _ P P P P 
1 | R N B Q K B N R 
-------------------
  | A B C D E F G H 

Turn of: white
Succesful move
c2c3
8 | R N B Q K B _ R 
7 | P P P P P P P P 
6 | _ _ _ _ _ N _ _ 
5 | _ _ _ _ _ _ _ _ 
4 | _ _ _ P _ _ _ _ 
3 | _ _ P _ _ _ _ _ 
2 | P P _ _ P P P P 
1 | R N B Q K B N R 
-------------------
  | A B C D E F G H 

Turn of: black
Succesful move
b8c6
8 | R _ B Q K B _ R 
7 | P P P P P P P P 
6 | _ _ N _ _ N _ _ 
5 | _ _ _ _ _ _ _ _ 
4 | _ _ _ P _ _ _ _ 
3 | _ _ P _ _ _ _ _ 
2 | P P _ _ P P P P 
1 | R N B Q K B N R 
-------------------
  | A B C D E F G H 

Turn of: white
Succesful move
d1a4
8 | R _ B Q K B _ R 
7 | P P P P P P P P 
6 | _ _ N _ _ N _ _ 
5 | _ _ _ _ _ _ _ _ 
4 | Q _ _ P _ _ _ _ 
3 | _ _ P _ _ _ _ _ 
2 | P P _ _ P P P P 
1 | R N B _ K B N R 
-------------------
  | A B C D E F G H 

Turn of: black
Succesful move
e7e6
8 | R _ B Q K B _ R 
7 | P P P P _ P P P 
6 | _ _ N _ P N _ _ 
5 | _ _ _ _ _ _ _ _ 
4 | Q _ _ P _ _ _ _ 
3 | _ _ P _ _ _ _ _ 
2 | P P _ _ P P P P 
1 | R N B _ K B N R 
-------------------
  | A B C D E F G H 

We are playing as White
Move history:
d2d4
g8f6
c2c3
b8c6
d1a4
e7e6
8 | R _ B Q K B _ R 
7 | P P P P _ P P P 
6 | _ _ N _ P N _ _ 
5 | _ _ _ _ _ _ _ _ 
4 | Q _ _ P _ _ _ _ 
3 | _ _ P _ _ _ _ _ 
2 | P P _ _ P P P P 
1 | R N B _ K B N R 
-------------------
  | A B C D E F G H 

It is white's turn to play.
AI's move: a4c4
Move written: a4c4
[32;1m[Game] [0mPlayer's error code: 0
[32;1m[Game] [0mChecking move validity...
[32;1m[Board] [0mInitializing board...
[32;1m[Board] [0mLoading history file `championship/lizzie-iii-bbd/history.csv`...
[32;1m[Board] [0mLoaded 6 move(s).
[32;1m[Board] [0mLoading move file `championship/lizzie-iii-bbd/move.csv`...
[32;1m[Board] [0mWhite player is playing a4 to c4.
[32;1m[Board] [0m
[32;1m[Board] [0m    a b c d e f g h 
[32;1m[Board] [0m  -------------------
[32;1m[Board] [0m8 ||[30;1mr[0m| |[30;1mb[0m|[30;1mQ[0m|[30;1mK[0m|[30;1mb[0m|[7;1m [0m|[30;1mr[0m|| 8
[32;1m[Board] [0m  -------------------
[32;1m[Board] [0m7 ||[30;1mp[0m|[30;1mp[0m|[30;1mp[0m|[30;1mp[0m| |[30;1mp[0m|[30;1mp[0m|[30;1mp[0m|| 7
[32;1m[Board] [0m  -------------------
[32;1m[Board] [0m6 ||[7;1m [0m| |[30;1mk[0m| |[30;1mp[0m|[30;1mk[0m|[7;1m [0m| || 6
[32;1m[Board] [0m  -------------------
[32;1m[Board] [0m5 || |[7;1m [0m| |[7;1m [0m| |[7;1m [0m| |[7;1m [0m|| 5
[32;1m[Board] [0m  -------------------
[32;1m[Board] [0m4 ||[7;1m [0m| |[0;1mQ[0m|[0;1mp[0m|[7;1m [0m| |[7;1m [0m| || 4
[32;1m[Board] [0m  -------------------
[32;1m[Board] [0m3 || |[7;1m [0m|[0;1mp[0m|[7;1m [0m| |[7;1m [0m| |[7;1m [0m|| 3
[32;1m[Board] [0m  -------------------
[32;1m[Board] [0m2 ||[0;1mp[0m|[0;1mp[0m|[7;1m [0m| |[0;1mp[0m|[0;1mp[0m|[0;1mp[0m|[0;1mp[0m|| 2
[32;1m[Board] [0m  -------------------
[32;1m[Board] [0m1 ||[0;1mr[0m|[0;1mk[0m|[0;1mb[0m|[7;1m [0m|[0;1mK[0m|[0;1mb[0m|[0;1mk[0m|[0;1mr[0m|| 1
[32;1m[Board] [0m  -------------------
[32;1m[Board] [0m    a b c d e f g h
[32;1m[Board] [0m
[32;1m[Referee] [0mThis is the turn of the Black player...
info score 486 depth 1 nodes 87 time 0
info score 342 depth 2 nodes 1007 time 2
info score 414 depth 3 nodes 8014 time 19
info score 272 depth 4 nodes 23935 time 61
info score 320 depth 5 nodes 121161 time 286
bestmove f8d6
[32;1m[Game] [0mPlayer's error code: 0
[32;1m[Game] [0mChecking move validity...
[32;1m[Board] [0mInitializing board...
[32;1m[Board] [0mLoading history file `championship/lizzie-iii-bbd/history.csv`...
[32;1m[Board] [0mLoaded 7 move(s).
[32;1m[Board] [0mLoading move file `championship/lizzie-iii-bbd/move.csv`...
[32;1m[Board] [0mBlack player is playing f8 to d6.
[32;1m[Board] [0m
[32;1m[Board] [0m    a b c d e f g h 
[32;1m[Board] [0m  -------------------
[32;1m[Board] [0m8 ||[30;1mr[0m| |[30;1mb[0m|[30;1mQ[0m|[30;1mK[0m| |[7;1m [0m|[30;1mr[0m|| 8
[32;1m[Board] [0m  -------------------
[32;1m[Board] [0m7 ||[30;1mp[0m|[30;1mp[0m|[30;1mp[0m|[30;1mp[0m| |[30;1mp[0m|[30;1mp[0m|[30;1mp[0m|| 7
[32;1m[Board] [0m  -------------------
[32;1m[Board] [0m6 ||[7;1m [0m| |[30;1mk[0m|[30;1mb[0m|[30;1mp[0m|[30;1mk[0m|[7;1m [0m| || 6
[32;1m[Board] [0m  -------------------
[32;1m[Board] [0m5 || |[7;1m [0m| |[7;1m [0m| |[7;1m [0m| |[7;1m [0m|| 5
[32;1m[Board] [0m  -------------------
[32;1m[Board] [0m4 ||[7;1m [0m| |[0;1mQ[0m|[0;1mp[0m|[7;1m [0m| |[7;1m [0m| || 4
[32;1m[Board] [0m  -------------------
[32;1m[Board] [0m3 || |[7;1m [0m|[0;1mp[0m|[7;1m [0m| |[7;1m [0m| |[7;1m [0m|| 3
[32;1m[Board] [0m  -------------------
[32;1m[Board] [0m2 ||[0;1mp[0m|[0;1mp[0m|[7;1m [0m| |[0;1mp[0m|[0;1mp[0m|[0;1mp[0m|[0;1mp[0m|| 2
[32;1m[Board] [0m  -------------------
[32;1m[Board] [0m1 ||[0;1mr[0m|[0;1mk[0m|[0;1mb[0m|[7;1m [0m|[0;1mK[0m|[0;1mb[0m|[0;1mk[0m|[0;1mr[0m|| 1
[32;1m[Board] [0m  -------------------
[32;1m[Board] [0m    a b c d e f g h
[32;1m[Board] [0m
[32;1m[Referee] [0mThis is the turn of the White player...
Input file: championship/lizzie-iii-bbd/history.csv
Output file: championship/lizzie-iii-bbd/move.csv
Turn of: white
Succesful move
d2d4
8 | R N B Q K B N R 
7 | P P P P P P P P 
6 | _ _ _ _ _ _ _ _ 
5 | _ _ _ _ _ _ _ _ 
4 | _ _ _ P _ _ _ _ 
3 | _ _ _ _ _ _ _ _ 
2 | P P P _ P P P P 
1 | R N B Q K B N R 
-------------------
  | A B C D E F G H 

Turn of: black
Succesful move
g8f6
8 | R N B Q K B _ R 
7 | P P P P P P P P 
6 | _ _ _ _ _ N _ _ 
5 | _ _ _ _ _ _ _ _ 
4 | _ _ _ P _ _ _ _ 
3 | _ _ _ _ _ _ _ _ 
2 | P P P _ P P P P 
1 | R N B Q K B N R 
-------------------
  | A B C D E F G H 

Turn of: white
Succesful move
c2c3
8 | R N B Q K B _ R 
7 | P P P P P P P P 
6 | _ _ _ _ _ N _ _ 
5 | _ _ _ _ _ _ _ _ 
4 | _ _ _ P _ _ _ _ 
3 | _ _ P _ _ _ _ _ 
2 | P P _ _ P P P P 
1 | R N B Q K B N R 
-------------------
  | A B C D E F G H 

Turn of: black
Succesful move
b8c6
8 | R _ B Q K B _ R 
7 | P P P P P P P P 
6 | _ _ N _ _ N _ _ 
5 | _ _ _ _ _ _ _ _ 
4 | _ _ _ P _ _ _ _ 
3 | _ _ P _ _ _ _ _ 
2 | P P _ _ P P P P 
1 | R N B Q K B N R 
-------------------
  | A B C D E F G H 

Turn of: white
Succesful move
d1a4
8 | R _ B Q K B _ R 
7 | P P P P P P P P 
6 | _ _ N _ _ N _ _ 
5 | _ _ _ _ _ _ _ _ 
4 | Q _ _ P _ _ _ _ 
3 | _ _ P _ _ _ _ _ 
2 | P P _ _ P P P P 
1 | R N B _ K B N R 
-------------------
  | A B C D E F G H 

Turn of: black
Succesful move
e7e6
8 | R _ B Q K B _ R 
7 | P P P P _ P P P 
6 | _ _ N _ P N _ _ 
5 | _ _ _ _ _ _ _ _ 
4 | Q _ _ P _ _ _ _ 
3 | _ _ P _ _ _ _ _ 
2 | P P _ _ P P P P 
1 | R N B _ K B N R 
-------------------
  | A B C D E F G H 

Turn of: white
Succesful move
a4c4
8 | R _ B Q K B _ R 
7 | P P P P _ P P P 
6 | _ _ N _ P N _ _ 
5 | _ _ _ _ _ _ _ _ 
4 | _ _ Q P _ _ _ _ 
3 | _ _ P _ _ _ _ _ 
2 | P P _ _ P P P P 
1 | R N B _ K B N R 
-------------------
  | A B C D E F G H 

Turn of: black
Succesful move
f8d6
8 | R _ B Q K _ _ R 
7 | P P P P _ P P P 
6 | _ _ N B P N _ _ 
5 | _ _ _ _ _ _ _ _ 
4 | _ _ Q P _ _ _ _ 
3 | _ _ P _ _ _ _ _ 
2 | P P _ _ P P P P 
1 | R N B _ K B N R 
-------------------
  | A B C D E F G H 

We are playing as White
Move history:
d2d4
g8f6
c2c3
b8c6
d1a4
e7e6
a4c4
f8d6
8 | R _ B Q K _ _ R 
7 | P P P P _ P P P 
6 | _ _ N B P N _ _ 
5 | _ _ _ _ _ _ _ _ 
4 | _ _ Q P _ _ _ _ 
3 | _ _ P _ _ _ _ _ 
2 | P P _ _ P P P P 
1 | R N B _ K B N R 
-------------------
  | A B C D E F G H 

It is white's turn to play.
AI's move: e1d1
Move written: e1d1
[32;1m[Game] [0mPlayer's error code: 0
[32;1m[Game] [0mChecking move validity...
[32;1m[Board] [0mInitializing board...
[32;1m[Board] [0mLoading history file `championship/lizzie-iii-bbd/history.csv`...
[32;1m[Board] [0mLoaded 8 move(s).
[32;1m[Board] [0mLoading move file `championship/lizzie-iii-bbd/move.csv`...
[32;1m[Board] [0mWhite player is playing e1 to d1.
[32;1m[Board] [0m
[32;1m[Board] [0m    a b c d e f g h 
[32;1m[Board] [0m  -------------------
[32;1m[Board] [0m8 ||[30;1mr[0m| |[30;1mb[0m|[30;1mQ[0m|[30;1mK[0m| |[7;1m [0m|[30;1mr[0m|| 8
[32;1m[Board] [0m  -------------------
[32;1m[Board] [0m7 ||[30;1mp[0m|[30;1mp[0m|[30;1mp[0m|[30;1mp[0m| |[30;1mp[0m|[30;1mp[0m|[30;1mp[0m|| 7
[32;1m[Board] [0m  -------------------
[32;1m[Board] [0m6 ||[7;1m [0m| |[30;1mk[0m|[30;1mb[0m|[30;1mp[0m|[30;1mk[0m|[7;1m [0m| || 6
[32;1m[Board] [0m  -------------------
[32;1m[Board] [0m5 || |[7;1m [0m| |[7;1m [0m| |[7;1m [0m| |[7;1m [0m|| 5
[32;1m[Board] [0m  -------------------
[32;1m[Board] [0m4 ||[7;1m [0m| |[0;1mQ[0m|[0;1mp[0m|[7;1m [0m| |[7;1m [0m| || 4
[32;1m[Board] [0m  -------------------
[32;1m[Board] [0m3 || |[7;1m [0m|[0;1mp[0m|[7;1m [0m| |[7;1m [0m| |[7;1m [0m|| 3
[32;1m[Board] [0m  -------------------
[32;1m[Board] [0m2 ||[0;1mp[0m|[0;1mp[0m|[7;1m [0m| |[0;1mp[0m|[0;1mp[0m|[0;1mp[0m|[0;1mp[0m|| 2
[32;1m[Board] [0m  -------------------
[32;1m[Board] [0m1 ||[0;1mr[0m|[0;1mk[0m|[0;1mb[0m|[0;1mK[0m| |[0;1mb[0m|[0;1mk[0m|[0;1mr[0m|| 1
[32;1m[Board] [0m  -------------------
[32;1m[Board] [0m    a b c d e f g h
[32;1m[Board] [0m
[32;1m[Referee] [0mThis is the turn of the Black player...
info score 493 depth 1 nodes 109 time 0
info score 375 depth 2 nodes 1030 time 2
info score 423 depth 3 nodes 14568 time 26
info score 307 depth 4 nodes 42449 time 80
info score 308 depth 5 nodes 230755 time 449
bestmove e8e7
[32;1m[Game] [0mPlayer's error code: 0
[32;1m[Game] [0mChecking move validity...
[32;1m[Board] [0mInitializing board...
[32;1m[Board] [0mLoading history file `championship/lizzie-iii-bbd/history.csv`...
[32;1m[Board] [0mLoaded 9 move(s).
[32;1m[Board] [0mLoading move file `championship/lizzie-iii-bbd/move.csv`...
[32;1m[Board] [0mBlack player is playing e8 to e7.
[32;1m[Board] [0m
[32;1m[Board] [0m    a b c d e f g h 
[32;1m[Board] [0m  -------------------
[32;1m[Board] [0m8 ||[30;1mr[0m| |[30;1mb[0m|[30;1mQ[0m|[7;1m [0m| |[7;1m [0m|[30;1mr[0m|| 8
[32;1m[Board] [0m  -------------------
[32;1m[Board] [0m7 ||[30;1mp[0m|[30;1mp[0m|[30;1mp[0m|[30;1mp[0m|[30;1mK[0m|[30;1mp[0m|[30;1mp[0m|[30;1mp[0m|| 7
[32;1m[Board] [0m  -------------------
[32;1m[Board] [0m6 ||[7;1m [0m| |[30;1mk[0m|[30;1mb[0m|[30;1mp[0m|[30;1mk[0m|[7;1m [0m| || 6
[32;1m[Board] [0m  -------------------
[32;1m[Board] [0m5 || |[7;1m [0m| |[7;1m [0m| |[7;1m [0m| |[7;1m [0m|| 5
[32;1m[Board] [0m  -------------------
[32;1m[Board] [0m4 ||[7;1m [0m| |[0;1mQ[0m|[0;1mp[0m|[7;1m [0m| |[7;1m [0m| || 4
[32;1m[Board] [0m  -------------------
[32;1m[Board] [0m3 || |[7;1m [0m|[0;1mp[0m|[7;1m [0m| |[7;1m [0m| |[7;1m [0m|| 3
[32;1m[Board] [0m  -------------------
[32;1m[Board] [0m2 ||[0;1mp[0m|[0;1mp[0m|[7;1m [0m| |[0;1mp[0m|[0;1mp[0m|[0;1mp[0m|[0;1mp[0m|| 2
[32;1m[Board] [0m  -------------------
[32;1m[Board] [0m1 ||[0;1mr[0m|[0;1mk[0m|[0;1mb[0m|[0;1mK[0m| |[0;1mb[0m|[0;1mk[0m|[0;1mr[0m|| 1
[32;1m[Board] [0m  -------------------
[32;1m[Board] [0m    a b c d e f g h
[32;1m[Board] [0m
[32;1m[Referee] [0mThis is the turn of the White player...
Input file: championship/lizzie-iii-bbd/history.csv
Output file: championship/lizzie-iii-bbd/move.csv
Turn of: white
Succesful move
d2d4
8 | R N B Q K B N R 
7 | P P P P P P P P 
6 | _ _ _ _ _ _ _ _ 
5 | _ _ _ _ _ _ _ _ 
4 | _ _ _ P _ _ _ _ 
3 | _ _ _ _ _ _ _ _ 
2 | P P P _ P P P P 
1 | R N B Q K B N R 
-------------------
  | A B C D E F G H 

Turn of: black
Succesful move
g8f6
8 | R N B Q K B _ R 
7 | P P P P P P P P 
6 | _ _ _ _ _ N _ _ 
5 | _ _ _ _ _ _ _ _ 
4 | _ _ _ P _ _ _ _ 
3 | _ _ _ _ _ _ _ _ 
2 | P P P _ P P P P 
1 | R N B Q K B N R 
-------------------
  | A B C D E F G H 

Turn of: white
Succesful move
c2c3
8 | R N B Q K B _ R 
7 | P P P P P P P P 
6 | _ _ _ _ _ N _ _ 
5 | _ _ _ _ _ _ _ _ 
4 | _ _ _ P _ _ _ _ 
3 | _ _ P _ _ _ _ _ 
2 | P P _ _ P P P P 
1 | R N B Q K B N R 
-------------------
  | A B C D E F G H 

Turn of: black
Succesful move
b8c6
8 | R _ B Q K B _ R 
7 | P P P P P P P P 
6 | _ _ N _ _ N _ _ 
5 | _ _ _ _ _ _ _ _ 
4 | _ _ _ P _ _ _ _ 
3 | _ _ P _ _ _ _ _ 
2 | P P _ _ P P P P 
1 | R N B Q K B N R 
-------------------
  | A B C D E F G H 

Turn of: white
Succesful move
d1a4
8 | R _ B Q K B _ R 
7 | P P P P P P P P 
6 | _ _ N _ _ N _ _ 
5 | _ _ _ _ _ _ _ _ 
4 | Q _ _ P _ _ _ _ 
3 | _ _ P _ _ _ _ _ 
2 | P P _ _ P P P P 
1 | R N B _ K B N R 
-------------------
  | A B C D E F G H 

Turn of: black
Succesful move
e7e6
8 | R _ B Q K B _ R 
7 | P P P P _ P P P 
6 | _ _ N _ P N _ _ 
5 | _ _ _ _ _ _ _ _ 
4 | Q _ _ P _ _ _ _ 
3 | _ _ P _ _ _ _ _ 
2 | P P _ _ P P P P 
1 | R N B _ K B N R 
-------------------
  | A B C D E F G H 

Turn of: white
Succesful move
a4c4
8 | R _ B Q K B _ R 
7 | P P P P _ P P P 
6 | _ _ N _ P N _ _ 
5 | _ _ _ _ _ _ _ _ 
4 | _ _ Q P _ _ _ _ 
3 | _ _ P _ _ _ _ _ 
2 | P P _ _ P P P P 
1 | R N B _ K B N R 
-------------------
  | A B C D E F G H 

Turn of: black
Succesful move
f8d6
8 | R _ B Q K _ _ R 
7 | P P P P _ P P P 
6 | _ _ N B P N _ _ 
5 | _ _ _ _ _ _ _ _ 
4 | _ _ Q P _ _ _ _ 
3 | _ _ P _ _ _ _ _ 
2 | P P _ _ P P P P 
1 | R N B _ K B N R 
-------------------
  | A B C D E F G H 

Turn of: white
Succesful move
e1d1
8 | R _ B Q K _ _ R 
7 | P P P P _ P P P 
6 | _ _ N B P N _ _ 
5 | _ _ _ _ _ _ _ _ 
4 | _ _ Q P _ _ _ _ 
3 | _ _ P _ _ _ _ _ 
2 | P P _ _ P P P P 
1 | R N B K _ B N R 
-------------------
  | A B C D E F G H 

Turn of: black
Succesful move
e8e7
8 | R _ B Q _ _ _ R 
7 | P P P P K P P P 
6 | _ _ N B P N _ _ 
5 | _ _ _ _ _ _ _ _ 
4 | _ _ Q P _ _ _ _ 
3 | _ _ P _ _ _ _ _ 
2 | P P _ _ P P P P 
1 | R N B K _ B N R 
-------------------
  | A B C D E F G H 

We are playing as White
Move history:
d2d4
g8f6
c2c3
b8c6
d1a4
e7e6
a4c4
f8d6
e1d1
e8e7
8 | R _ B Q _ _ _ R 
7 | P P P P K P P P 
6 | _ _ N B P N _ _ 
5 | _ _ _ _ _ _ _ _ 
4 | _ _ Q P _ _ _ _ 
3 | _ _ P _ _ _ _ _ 
2 | P P _ _ P P P P 
1 | R N B K _ B N R 
-------------------
  | A B C D E F G H 

It is white's turn to play.
AI's move: f2f4
Move written: f2f4
[32;1m[Game] [0mPlayer's error code: 0
[32;1m[Game] [0mChecking move validity...
[32;1m[Board] [0mInitializing board...
[32;1m[Board] [0mLoading history file `championship/lizzie-iii-bbd/history.csv`...
[32;1m[Board] [0mLoaded 10 move(s).
[32;1m[Board] [0mLoading move file `championship/lizzie-iii-bbd/move.csv`...
[32;1m[Board] [0mWhite player is playing f2 to f4.
[32;1m[Board] [0m
[32;1m[Board] [0m    a b c d e f g h 
[32;1m[Board] [0m  -------------------
[32;1m[Board] [0m8 ||[30;1mr[0m| |[30;1mb[0m|[30;1mQ[0m|[7;1m [0m| |[7;1m [0m|[30;1mr[0m|| 8
[32;1m[Board] [0m  -------------------
[32;1m[Board] [0m7 ||[30;1mp[0m|[30;1mp[0m|[30;1mp[0m|[30;1mp[0m|[30;1mK[0m|[30;1mp[0m|[30;1mp[0m|[30;1mp[0m|| 7
[32;1m[Board] [0m  -------------------
[32;1m[Board] [0m6 ||[7;1m [0m| |[30;1mk[0m|[30;1mb[0m|[30;1mp[0m|[30;1mk[0m|[7;1m [0m| || 6
[32;1m[Board] [0m  -------------------
[32;1m[Board] [0m5 || |[7;1m [0m| |[7;1m [0m| |[7;1m [0m| |[7;1m [0m|| 5
[32;1m[Board] [0m  -------------------
[32;1m[Board] [0m4 ||[7;1m [0m| |[0;1mQ[0m|[0;1mp[0m|[7;1m [0m|[0;1mp[0m|[7;1m [0m| || 4
[32;1m[Board] [0m  -------------------
[32;1m[Board] [0m3 || |[7;1m [0m|[0;1mp[0m|[7;1m [0m| |[7;1m [0m| |[7;1m [0m|| 3
[32;1m[Board] [0m  -------------------
[32;1m[Board] [0m2 ||[0;1mp[0m|[0;1mp[0m|[7;1m [0m| |[0;1mp[0m| |[0;1mp[0m|[0;1mp[0m|| 2
[32;1m[Board] [0m  -------------------
[32;1m[Board] [0m1 ||[0;1mr[0m|[0;1mk[0m|[0;1mb[0m|[0;1mK[0m| |[0;1mb[0m|[0;1mk[0m|[0;1mr[0m|| 1
[32;1m[Board] [0m  -------------------
[32;1m[Board] [0m    a b c d e f g h
[32;1m[Board] [0m
[32;1m[Referee] [0mThis is the turn of the Black player...
info score 654 depth 1 nodes 123 time 0
info score 537 depth 2 nodes 869 time 1
info score 584 depth 3 nodes 5990 time 13
info score 440 depth 4 nodes 28950 time 58
info score 486 depth 5 nodes 124342 time 265
bestmove f6g4
[32;1m[Game] [0mPlayer's error code: 0
[32;1m[Game] [0mChecking move validity...
[32;1m[Board] [0mInitializing board...
[32;1m[Board] [0mLoading history file `championship/lizzie-iii-bbd/history.csv`...
[32;1m[Board] [0mLoaded 11 move(s).
[32;1m[Board] [0mLoading move file `championship/lizzie-iii-bbd/move.csv`...
[32;1m[Board] [0mBlack player is playing f6 to g4.
[32;1m[Board] [0m
[32;1m[Board] [0m    a b c d e f g h 
[32;1m[Board] [0m  -------------------
[32;1m[Board] [0m8 ||[30;1mr[0m| |[30;1mb[0m|[30;1mQ[0m|[7;1m [0m| |[7;1m [0m|[30;1mr[0m|| 8
[32;1m[Board] [0m  -------------------
[32;1m[Board] [0m7 ||[30;1mp[0m|[30;1mp[0m|[30;1mp[0m|[30;1mp[0m|[30;1mK[0m|[30;1mp[0m|[30;1mp[0m|[30;1mp[0m|| 7
[32;1m[Board] [0m  -------------------
[32;1m[Board] [0m6 ||[7;1m [0m| |[30;1mk[0m|[30;1mb[0m|[30;1mp[0m| |[7;1m [0m| || 6
[32;1m[Board] [0m  -------------------
[32;1m[Board] [0m5 || |[7;1m [0m| |[7;1m [0m| |[7;1m [0m| |[7;1m [0m|| 5
[32;1m[Board] [0m  -------------------
[32;1m[Board] [0m4 ||[7;1m [0m| |[0;1mQ[0m|[0;1mp[0m|[7;1m [0m|[0;1mp[0m|[30;1mk[0m| || 4
[32;1m[Board] [0m  -------------------
[32;1m[Board] [0m3 || |[7;1m [0m|[0;1mp[0m|[7;1m [0m| |[7;1m [0m| |[7;1m [0m|| 3
[32;1m[Board] [0m  -------------------
[32;1m[Board] [0m2 ||[0;1mp[0m|[0;1mp[0m|[7;1m [0m| |[0;1mp[0m| |[0;1mp[0m|[0;1mp[0m|| 2
[32;1m[Board] [0m  -------------------
[32;1m[Board] [0m1 ||[0;1mr[0m|[0;1mk[0m|[0;1mb[0m|[0;1mK[0m| |[0;1mb[0m|[0;1mk[0m|[0;1mr[0m|| 1
[32;1m[Board] [0m  -------------------
[32;1m[Board] [0m    a b c d e f g h
[32;1m[Board] [0m
[32;1m[Referee] [0mThis is the turn of the White player...
Input file: championship/lizzie-iii-bbd/history.csv
Output file: championship/lizzie-iii-bbd/move.csv
Turn of: white
Succesful move
d2d4
8 | R N B Q K B N R 
7 | P P P P P P P P 
6 | _ _ _ _ _ _ _ _ 
5 | _ _ _ _ _ _ _ _ 
4 | _ _ _ P _ _ _ _ 
3 | _ _ _ _ _ _ _ _ 
2 | P P P _ P P P P 
1 | R N B Q K B N R 
-------------------
  | A B C D E F G H 

Turn of: black
Succesful move
g8f6
8 | R N B Q K B _ R 
7 | P P P P P P P P 
6 | _ _ _ _ _ N _ _ 
5 | _ _ _ _ _ _ _ _ 
4 | _ _ _ P _ _ _ _ 
3 | _ _ _ _ _ _ _ _ 
2 | P P P _ P P P P 
1 | R N B Q K B N R 
-------------------
  | A B C D E F G H 

Turn of: white
Succesful move
c2c3
8 | R N B Q K B _ R 
7 | P P P P P P P P 
6 | _ _ _ _ _ N _ _ 
5 | _ _ _ _ _ _ _ _ 
4 | _ _ _ P _ _ _ _ 
3 | _ _ P _ _ _ _ _ 
2 | P P _ _ P P P P 
1 | R N B Q K B N R 
-------------------
  | A B C D E F G H 

Turn of: black
Succesful move
b8c6
8 | R _ B Q K B _ R 
7 | P P P P P P P P 
6 | _ _ N _ _ N _ _ 
5 | _ _ _ _ _ _ _ _ 
4 | _ _ _ P _ _ _ _ 
3 | _ _ P _ _ _ _ _ 
2 | P P _ _ P P P P 
1 | R N B Q K B N R 
-------------------
  | A B C D E F G H 

Turn of: white
Succesful move
d1a4
8 | R _ B Q K B _ R 
7 | P P P P P P P P 
6 | _ _ N _ _ N _ _ 
5 | _ _ _ _ _ _ _ _ 
4 | Q _ _ P _ _ _ _ 
3 | _ _ P _ _ _ _ _ 
2 | P P _ _ P P P P 
1 | R N B _ K B N R 
-------------------
  | A B C D E F G H 

Turn of: black
Succesful move
e7e6
8 | R _ B Q K B _ R 
7 | P P P P _ P P P 
6 | _ _ N _ P N _ _ 
5 | _ _ _ _ _ _ _ _ 
4 | Q _ _ P _ _ _ _ 
3 | _ _ P _ _ _ _ _ 
2 | P P _ _ P P P P 
1 | R N B _ K B N R 
-------------------
  | A B C D E F G H 

Turn of: white
Succesful move
a4c4
8 | R _ B Q K B _ R 
7 | P P P P _ P P P 
6 | _ _ N _ P N _ _ 
5 | _ _ _ _ _ _ _ _ 
4 | _ _ Q P _ _ _ _ 
3 | _ _ P _ _ _ _ _ 
2 | P P _ _ P P P P 
1 | R N B _ K B N R 
-------------------
  | A B C D E F G H 

Turn of: black
Succesful move
f8d6
8 | R _ B Q K _ _ R 
7 | P P P P _ P P P 
6 | _ _ N B P N _ _ 
5 | _ _ _ _ _ _ _ _ 
4 | _ _ Q P _ _ _ _ 
3 | _ _ P _ _ _ _ _ 
2 | P P _ _ P P P P 
1 | R N B _ K B N R 
-------------------
  | A B C D E F G H 

Turn of: white
Succesful move
e1d1
8 | R _ B Q K _ _ R 
7 | P P P P _ P P P 
6 | _ _ N B P N _ _ 
5 | _ _ _ _ _ _ _ _ 
4 | _ _ Q P _ _ _ _ 
3 | _ _ P _ _ _ _ _ 
2 | P P _ _ P P P P 
1 | R N B K _ B N R 
-------------------
  | A B C D E F G H 

Turn of: black
Succesful move
e8e7
8 | R _ B Q _ _ _ R 
7 | P P P P K P P P 
6 | _ _ N B P N _ _ 
5 | _ _ _ _ _ _ _ _ 
4 | _ _ Q P _ _ _ _ 
3 | _ _ P _ _ _ _ _ 
2 | P P _ _ P P P P 
1 | R N B K _ B N R 
-------------------
  | A B C D E F G H 

Turn of: white
Succesful move
f2f4
8 | R _ B Q _ _ _ R 
7 | P P P P K P P P 
6 | _ _ N B P N _ _ 
5 | _ _ _ _ _ _ _ _ 
4 | _ _ Q P _ P _ _ 
3 | _ _ P _ _ _ _ _ 
2 | P P _ _ P _ P P 
1 | R N B K _ B N R 
-------------------
  | A B C D E F G H 

Turn of: black
Succesful move
f6g4
8 | R _ B Q _ _ _ R 
7 | P P P P K P P P 
6 | _ _ N B P _ _ _ 
5 | _ _ _ _ _ _ _ _ 
4 | _ _ Q P _ P N _ 
3 | _ _ P _ _ _ _ _ 
2 | P P _ _ P _ P P 
1 | R N B K _ B N R 
-------------------
  | A B C D E F G H 

We are playing as White
Move history:
d2d4
g8f6
c2c3
b8c6
d1a4
e7e6
a4c4
f8d6
e1d1
e8e7
f2f4
f6g4
8 | R _ B Q _ _ _ R 
7 | P P P P K P P P 
6 | _ _ N B P _ _ _ 
5 | _ _ _ _ _ _ _ _ 
4 | _ _ Q P _ P N _ 
3 | _ _ P _ _ _ _ _ 
2 | P P _ _ P _ P P 
1 | R N B K _ B N R 
-------------------
  | A B C D E F G H 

It is white's turn to play.
AI's move: g1f3
Move written: g1f3
[32;1m[Game] [0mPlayer's error code: 0
[32;1m[Game] [0mChecking move validity...
[32;1m[Board] [0mInitializing board...
[32;1m[Board] [0mLoading history file `championship/lizzie-iii-bbd/history.csv`...
[32;1m[Board] [0mLoaded 12 move(s).
[32;1m[Board] [0mLoading move file `championship/lizzie-iii-bbd/move.csv`...
[32;1m[Board] [0mWhite player is playing g1 to f3.
[32;1m[Board] [0m
[32;1m[Board] [0m    a b c d e f g h 
[32;1m[Board] [0m  -------------------
[32;1m[Board] [0m8 ||[30;1mr[0m| |[30;1mb[0m|[30;1mQ[0m|[7;1m [0m| |[7;1m [0m|[30;1mr[0m|| 8
[32;1m[Board] [0m  -------------------
[32;1m[Board] [0m7 ||[30;1mp[0m|[30;1mp[0m|[30;1mp[0m|[30;1mp[0m|[30;1mK[0m|[30;1mp[0m|[30;1mp[0m|[30;1mp[0m|| 7
[32;1m[Board] [0m  -------------------
[32;1m[Board] [0m6 ||[7;1m [0m| |[30;1mk[0m|[30;1mb[0m|[30;1mp[0m| |[7;1m [0m| || 6
[32;1m[Board] [0m  -------------------
[32;1m[Board] [0m5 || |[7;1m [0m| |[7;1m [0m| |[7;1m [0m| |[7;1m [0m|| 5
[32;1m[Board] [0m  -------------------
[32;1m[Board] [0m4 ||[7;1m [0m| |[0;1mQ[0m|[0;1mp[0m|[7;1m [0m|[0;1mp[0m|[30;1mk[0m| || 4
[32;1m[Board] [0m  -------------------
[32;1m[Board] [0m3 || |[7;1m [0m|[0;1mp[0m|[7;1m [0m| |[0;1mk[0m| |[7;1m [0m|| 3
[32;1m[Board] [0m  -------------------
[32;1m[Board] [0m2 ||[0;1mp[0m|[0;1mp[0m|[7;1m [0m| |[0;1mp[0m| |[0;1mp[0m|[0;1mp[0m|| 2
[32;1m[Board] [0m  -------------------
[32;1m[Board] [0m1 ||[0;1mr[0m|[0;1mk[0m|[0;1mb[0m|[0;1mK[0m| |[0;1mb[0m| |[0;1mr[0m|| 1
[32;1m[Board] [0m  -------------------
[32;1m[Board] [0m    a b c d e f g h
[32;1m[Board] [0m
[32;1m[Referee] [0mThis is the turn of the Black player...
info score 463 depth 1 nodes 188 time 0
info score 817 depth 2 nodes 1189 time 2
info score 817 depth 3 nodes 15850 time 29
info score 721 depth 4 nodes 44416 time 83
info score 765 depth 5 nodes 194910 time 377
bestmove d6f4
[32;1m[Game] [0mPlayer's error code: 0
[32;1m[Game] [0mChecking move validity...
[32;1m[Board] [0mInitializing board...
[32;1m[Board] [0mLoading history file `championship/lizzie-iii-bbd/history.csv`...
[32;1m[Board] [0mLoaded 13 move(s).
[32;1m[Board] [0mLoading move file `championship/lizzie-iii-bbd/move.csv`...
[32;1m[Board] [0mBlack player is playing d6 to f4.
[32;1m[Board] [0m[5;1mBlack Bishop is taking White Pawn.[0m
[32;1m[Board] [0m
[32;1m[Board] [0m    a b c d e f g h 
[32;1m[Board] [0m  -------------------
[32;1m[Board] [0m8 ||[30;1mr[0m| |[30;1mb[0m|[30;1mQ[0m|[7;1m [0m| |[7;1m [0m|[30;1mr[0m|| 8
[32;1m[Board] [0m  -------------------
[32;1m[Board] [0m7 ||[30;1mp[0m|[30;1mp[0m|[30;1mp[0m|[30;1mp[0m|[30;1mK[0m|[30;1mp[0m|[30;1mp[0m|[30;1mp[0m|| 7
[32;1m[Board] [0m  -------------------
[32;1m[Board] [0m6 ||[7;1m [0m| |[30;1mk[0m| |[30;1mp[0m| |[7;1m [0m| || 6
[32;1m[Board] [0m  -------------------
[32;1m[Board] [0m5 || |[7;1m [0m| |[7;1m [0m| |[7;1m [0m| |[7;1m [0m|| 5
[32;1m[Board] [0m  -------------------
[32;1m[Board] [0m4 ||[7;1m [0m| |[0;1mQ[0m|[0;1mp[0m|[7;1m [0m|[30;1mb[0m|[30;1mk[0m| || 4
[32;1m[Board] [0m  -------------------
[32;1m[Board] [0m3 || |[7;1m [0m|[0;1mp[0m|[7;1m [0m| |[0;1mk[0m| |[7;1m [0m|| 3
[32;1m[Board] [0m  -------------------
[32;1m[Board] [0m2 ||[0;1mp[0m|[0;1mp[0m|[7;1m [0m| |[0;1mp[0m| |[0;1mp[0m|[0;1mp[0m|| 2
[32;1m[Board] [0m  -------------------
[32;1m[Board] [0m1 ||[0;1mr[0m|[0;1mk[0m|[0;1mb[0m|[0;1mK[0m| |[0;1mb[0m| |[0;1mr[0m|| 1
[32;1m[Board] [0m  -------------------
[32;1m[Board] [0m    a b c d e f g h
[32;1m[Board] [0m
[32;1m[Referee] [0mThis is the turn of the White player...
Input file: championship/lizzie-iii-bbd/history.csv
Output file: championship/lizzie-iii-bbd/move.csv
Turn of: white
Succesful move
d2d4
8 | R N B Q K B N R 
7 | P P P P P P P P 
6 | _ _ _ _ _ _ _ _ 
5 | _ _ _ _ _ _ _ _ 
4 | _ _ _ P _ _ _ _ 
3 | _ _ _ _ _ _ _ _ 
2 | P P P _ P P P P 
1 | R N B Q K B N R 
-------------------
  | A B C D E F G H 

Turn of: black
Succesful move
g8f6
8 | R N B Q K B _ R 
7 | P P P P P P P P 
6 | _ _ _ _ _ N _ _ 
5 | _ _ _ _ _ _ _ _ 
4 | _ _ _ P _ _ _ _ 
3 | _ _ _ _ _ _ _ _ 
2 | P P P _ P P P P 
1 | R N B Q K B N R 
-------------------
  | A B C D E F G H 

Turn of: white
Succesful move
c2c3
8 | R N B Q K B _ R 
7 | P P P P P P P P 
6 | _ _ _ _ _ N _ _ 
5 | _ _ _ _ _ _ _ _ 
4 | _ _ _ P _ _ _ _ 
3 | _ _ P _ _ _ _ _ 
2 | P P _ _ P P P P 
1 | R N B Q K B N R 
-------------------
  | A B C D E F G H 

Turn of: black
Succesful move
b8c6
8 | R _ B Q K B _ R 
7 | P P P P P P P P 
6 | _ _ N _ _ N _ _ 
5 | _ _ _ _ _ _ _ _ 
4 | _ _ _ P _ _ _ _ 
3 | _ _ P _ _ _ _ _ 
2 | P P _ _ P P P P 
1 | R N B Q K B N R 
-------------------
  | A B C D E F G H 

Turn of: white
Succesful move
d1a4
8 | R _ B Q K B _ R 
7 | P P P P P P P P 
6 | _ _ N _ _ N _ _ 
5 | _ _ _ _ _ _ _ _ 
4 | Q _ _ P _ _ _ _ 
3 | _ _ P _ _ _ _ _ 
2 | P P _ _ P P P P 
1 | R N B _ K B N R 
-------------------
  | A B C D E F G H 

Turn of: black
Succesful move
e7e6
8 | R _ B Q K B _ R 
7 | P P P P _ P P P 
6 | _ _ N _ P N _ _ 
5 | _ _ _ _ _ _ _ _ 
4 | Q _ _ P _ _ _ _ 
3 | _ _ P _ _ _ _ _ 
2 | P P _ _ P P P P 
1 | R N B _ K B N R 
-------------------
  | A B C D E F G H 

Turn of: white
Succesful move
a4c4
8 | R _ B Q K B _ R 
7 | P P P P _ P P P 
6 | _ _ N _ P N _ _ 
5 | _ _ _ _ _ _ _ _ 
4 | _ _ Q P _ _ _ _ 
3 | _ _ P _ _ _ _ _ 
2 | P P _ _ P P P P 
1 | R N B _ K B N R 
-------------------
  | A B C D E F G H 

Turn of: black
Succesful move
f8d6
8 | R _ B Q K _ _ R 
7 | P P P P _ P P P 
6 | _ _ N B P N _ _ 
5 | _ _ _ _ _ _ _ _ 
4 | _ _ Q P _ _ _ _ 
3 | _ _ P _ _ _ _ _ 
2 | P P _ _ P P P P 
1 | R N B _ K B N R 
-------------------
  | A B C D E F G H 

Turn of: white
Succesful move
e1d1
8 | R _ B Q K _ _ R 
7 | P P P P _ P P P 
6 | _ _ N B P N _ _ 
5 | _ _ _ _ _ _ _ _ 
4 | _ _ Q P _ _ _ _ 
3 | _ _ P _ _ _ _ _ 
2 | P P _ _ P P P P 
1 | R N B K _ B N R 
-------------------
  | A B C D E F G H 

Turn of: black
Succesful move
e8e7
8 | R _ B Q _ _ _ R 
7 | P P P P K P P P 
6 | _ _ N B P N _ _ 
5 | _ _ _ _ _ _ _ _ 
4 | _ _ Q P _ _ _ _ 
3 | _ _ P _ _ _ _ _ 
2 | P P _ _ P P P P 
1 | R N B K _ B N R 
-------------------
  | A B C D E F G H 

Turn of: white
Succesful move
f2f4
8 | R _ B Q _ _ _ R 
7 | P P P P K P P P 
6 | _ _ N B P N _ _ 
5 | _ _ _ _ _ _ _ _ 
4 | _ _ Q P _ P _ _ 
3 | _ _ P _ _ _ _ _ 
2 | P P _ _ P _ P P 
1 | R N B K _ B N R 
-------------------
  | A B C D E F G H 

Turn of: black
Succesful move
f6g4
8 | R _ B Q _ _ _ R 
7 | P P P P K P P P 
6 | _ _ N B P _ _ _ 
5 | _ _ _ _ _ _ _ _ 
4 | _ _ Q P _ P N _ 
3 | _ _ P _ _ _ _ _ 
2 | P P _ _ P _ P P 
1 | R N B K _ B N R 
-------------------
  | A B C D E F G H 

Turn of: white
Succesful move
g1f3
8 | R _ B Q _ _ _ R 
7 | P P P P K P P P 
6 | _ _ N B P _ _ _ 
5 | _ _ _ _ _ _ _ _ 
4 | _ _ Q P _ P N _ 
3 | _ _ P _ _ N _ _ 
2 | P P _ _ P _ P P 
1 | R N B K _ B _ R 
-------------------
  | A B C D E F G H 

Turn of: black
Succesful move
d6f4
8 | R _ B Q _ _ _ R 
7 | P P P P K P P P 
6 | _ _ N _ P _ _ _ 
5 | _ _ _ _ _ _ _ _ 
4 | _ _ Q P _ B N _ 
3 | _ _ P _ _ N _ _ 
2 | P P _ _ P _ P P 
1 | R N B K _ B _ R 
-------------------
  | A B C D E F G H 

We are playing as White
Move history:
d2d4
g8f6
c2c3
b8c6
d1a4
e7e6
a4c4
f8d6
e1d1
e8e7
f2f4
f6g4
g1f3
d6f4
8 | R _ B Q _ _ _ R 
7 | P P P P K P P P 
6 | _ _ N _ P _ _ _ 
5 | _ _ _ _ _ _ _ _ 
4 | _ _ Q P _ B N _ 
3 | _ _ P _ _ N _ _ 
2 | P P _ _ P _ P P 
1 | R N B K _ B _ R 
-------------------
  | A B C D E F G H 

It is white's turn to play.
AI's move: b2b3
Move written: b2b3
[32;1m[Game] [0mPlayer's error code: 0
[32;1m[Game] [0mChecking move validity...
[32;1m[Board] [0mInitializing board...
[32;1m[Board] [0mLoading history file `championship/lizzie-iii-bbd/history.csv`...
[32;1m[Board] [0mLoaded 14 move(s).
[32;1m[Board] [0mLoading move file `championship/lizzie-iii-bbd/move.csv`...
[32;1m[Board] [0mWhite player is playing b2 to b3.
[32;1m[Board] [0m
[32;1m[Board] [0m    a b c d e f g h 
[32;1m[Board] [0m  -------------------
[32;1m[Board] [0m8 ||[30;1mr[0m| |[30;1mb[0m|[30;1mQ[0m|[7;1m [0m| |[7;1m [0m|[30;1mr[0m|| 8
[32;1m[Board] [0m  -------------------
[32;1m[Board] [0m7 ||[30;1mp[0m|[30;1mp[0m|[30;1mp[0m|[30;1mp[0m|[30;1mK[0m|[30;1mp[0m|[30;1mp[0m|[30;1mp[0m|| 7
[32;1m[Board] [0m  -------------------
[32;1m[Board] [0m6 ||[7;1m [0m| |[30;1mk[0m| |[30;1mp[0m| |[7;1m [0m| || 6
[32;1m[Board] [0m  -------------------
[32;1m[Board] [0m5 || |[7;1m [0m| |[7;1m [0m| |[7;1m [0m| |[7;1m [0m|| 5
[32;1m[Board] [0m  -------------------
[32;1m[Board] [0m4 ||[7;1m [0m| |[0;1mQ[0m|[0;1mp[0m|[7;1m [0m|[30;1mb[0m|[30;1mk[0m| || 4
[32;1m[Board] [0m  -------------------
[32;1m[Board] [0m3 || |[0;1mp[0m|[0;1mp[0m|[7;1m [0m| |[0;1mk[0m| |[7;1m [0m|| 3
[32;1m[Board] [0m  -------------------
[32;1m[Board] [0m2 ||[0;1mp[0m| |[7;1m [0m| |[0;1mp[0m| |[0;1mp[0m|[0;1mp[0m|| 2
[32;1m[Board] [0m  -------------------
[32;1m[Board] [0m1 ||[0;1mr[0m|[0;1mk[0m|[0;1mb[0m|[0;1mK[0m| |[0;1mb[0m| |[0;1mr[0m|| 1
[32;1m[Board] [0m  -------------------
[32;1m[Board] [0m    a b c d e f g h
[32;1m[Board] [0m
[32;1m[Referee] [0mThis is the turn of the Black player...
info score 576 depth 1 nodes 376 time 1
info score 586 depth 2 nodes 1055 time 2
info score 592 depth 3 nodes 4642 time 11
info score 578 depth 4 nodes 32396 time 79
info score 596 depth 5 nodes 164570 time 396
bestmove d7d5
[32;1m[Game] [0mPlayer's error code: 0
[32;1m[Game] [0mChecking move validity...
[32;1m[Board] [0mInitializing board...
[32;1m[Board] [0mLoading history file `championship/lizzie-iii-bbd/history.csv`...
[32;1m[Board] [0mLoaded 15 move(s).
[32;1m[Board] [0mLoading move file `championship/lizzie-iii-bbd/move.csv`...
[32;1m[Board] [0mBlack player is playing d7 to d5.
[32;1m[Board] [0m
[32;1m[Board] [0m    a b c d e f g h 
[32;1m[Board] [0m  -------------------
[32;1m[Board] [0m8 ||[30;1mr[0m| |[30;1mb[0m|[30;1mQ[0m|[7;1m [0m| |[7;1m [0m|[30;1mr[0m|| 8
[32;1m[Board] [0m  -------------------
[32;1m[Board] [0m7 ||[30;1mp[0m|[30;1mp[0m|[30;1mp[0m|[7;1m [0m|[30;1mK[0m|[30;1mp[0m|[30;1mp[0m|[30;1mp[0m|| 7
[32;1m[Board] [0m  -------------------
[32;1m[Board] [0m6 ||[7;1m [0m| |[30;1mk[0m| |[30;1mp[0m| |[7;1m [0m| || 6
[32;1m[Board] [0m  -------------------
[32;1m[Board] [0m5 || |[7;1m [0m| |[30;1mp[0m| |[7;1m [0m| |[7;1m [0m|| 5
[32;1m[Board] [0m  -------------------
[32;1m[Board] [0m4 ||[7;1m [0m| |[0;1mQ[0m|[0;1mp[0m|[7;1m [0m|[30;1mb[0m|[30;1mk[0m| || 4
[32;1m[Board] [0m  -------------------
[32;1m[Board] [0m3 || |[0;1mp[0m|[0;1mp[0m|[7;1m [0m| |[0;1mk[0m| |[7;1m [0m|| 3
[32;1m[Board] [0m  -------------------
[32;1m[Board] [0m2 ||[0;1mp[0m| |[7;1m [0m| |[0;1mp[0m| |[0;1mp[0m|[0;1mp[0m|| 2
[32;1m[Board] [0m  -------------------
[32;1m[Board] [0m1 ||[0;1mr[0m|[0;1mk[0m|[0;1mb[0m|[0;1mK[0m| |[0;1mb[0m| |[0;1mr[0m|| 1
[32;1m[Board] [0m  -------------------
[32;1m[Board] [0m    a b c d e f g h
[32;1m[Board] [0m
[32;1m[Referee] [0mThis is the turn of the White player...
Input file: championship/lizzie-iii-bbd/history.csv
Output file: championship/lizzie-iii-bbd/move.csv
Turn of: white
Succesful move
d2d4
8 | R N B Q K B N R 
7 | P P P P P P P P 
6 | _ _ _ _ _ _ _ _ 
5 | _ _ _ _ _ _ _ _ 
4 | _ _ _ P _ _ _ _ 
3 | _ _ _ _ _ _ _ _ 
2 | P P P _ P P P P 
1 | R N B Q K B N R 
-------------------
  | A B C D E F G H 

Turn of: black
Succesful move
g8f6
8 | R N B Q K B _ R 
7 | P P P P P P P P 
6 | _ _ _ _ _ N _ _ 
5 | _ _ _ _ _ _ _ _ 
4 | _ _ _ P _ _ _ _ 
3 | _ _ _ _ _ _ _ _ 
2 | P P P _ P P P P 
1 | R N B Q K B N R 
-------------------
  | A B C D E F G H 

Turn of: white
Succesful move
c2c3
8 | R N B Q K B _ R 
7 | P P P P P P P P 
6 | _ _ _ _ _ N _ _ 
5 | _ _ _ _ _ _ _ _ 
4 | _ _ _ P _ _ _ _ 
3 | _ _ P _ _ _ _ _ 
2 | P P _ _ P P P P 
1 | R N B Q K B N R 
-------------------
  | A B C D E F G H 

Turn of: black
Succesful move
b8c6
8 | R _ B Q K B _ R 
7 | P P P P P P P P 
6 | _ _ N _ _ N _ _ 
5 | _ _ _ _ _ _ _ _ 
4 | _ _ _ P _ _ _ _ 
3 | _ _ P _ _ _ _ _ 
2 | P P _ _ P P P P 
1 | R N B Q K B N R 
-------------------
  | A B C D E F G H 

Turn of: white
Succesful move
d1a4
8 | R _ B Q K B _ R 
7 | P P P P P P P P 
6 | _ _ N _ _ N _ _ 
5 | _ _ _ _ _ _ _ _ 
4 | Q _ _ P _ _ _ _ 
3 | _ _ P _ _ _ _ _ 
2 | P P _ _ P P P P 
1 | R N B _ K B N R 
-------------------
  | A B C D E F G H 

Turn of: black
Succesful move
e7e6
8 | R _ B Q K B _ R 
7 | P P P P _ P P P 
6 | _ _ N _ P N _ _ 
5 | _ _ _ _ _ _ _ _ 
4 | Q _ _ P _ _ _ _ 
3 | _ _ P _ _ _ _ _ 
2 | P P _ _ P P P P 
1 | R N B _ K B N R 
-------------------
  | A B C D E F G H 

Turn of: white
Succesful move
a4c4
8 | R _ B Q K B _ R 
7 | P P P P _ P P P 
6 | _ _ N _ P N _ _ 
5 | _ _ _ _ _ _ _ _ 
4 | _ _ Q P _ _ _ _ 
3 | _ _ P _ _ _ _ _ 
2 | P P _ _ P P P P 
1 | R N B _ K B N R 
-------------------
  | A B C D E F G H 

Turn of: black
Succesful move
f8d6
8 | R _ B Q K _ _ R 
7 | P P P P _ P P P 
6 | _ _ N B P N _ _ 
5 | _ _ _ _ _ _ _ _ 
4 | _ _ Q P _ _ _ _ 
3 | _ _ P _ _ _ _ _ 
2 | P P _ _ P P P P 
1 | R N B _ K B N R 
-------------------
  | A B C D E F G H 

Turn of: white
Succesful move
e1d1
8 | R _ B Q K _ _ R 
7 | P P P P _ P P P 
6 | _ _ N B P N _ _ 
5 | _ _ _ _ _ _ _ _ 
4 | _ _ Q P _ _ _ _ 
3 | _ _ P _ _ _ _ _ 
2 | P P _ _ P P P P 
1 | R N B K _ B N R 
-------------------
  | A B C D E F G H 

Turn of: black
Succesful move
e8e7
8 | R _ B Q _ _ _ R 
7 | P P P P K P P P 
6 | _ _ N B P N _ _ 
5 | _ _ _ _ _ _ _ _ 
4 | _ _ Q P _ _ _ _ 
3 | _ _ P _ _ _ _ _ 
2 | P P _ _ P P P P 
1 | R N B K _ B N R 
-------------------
  | A B C D E F G H 

Turn of: white
Succesful move
f2f4
8 | R _ B Q _ _ _ R 
7 | P P P P K P P P 
6 | _ _ N B P N _ _ 
5 | _ _ _ _ _ _ _ _ 
4 | _ _ Q P _ P _ _ 
3 | _ _ P _ _ _ _ _ 
2 | P P _ _ P _ P P 
1 | R N B K _ B N R 
-------------------
  | A B C D E F G H 

Turn of: black
Succesful move
f6g4
8 | R _ B Q _ _ _ R 
7 | P P P P K P P P 
6 | _ _ N B P _ _ _ 
5 | _ _ _ _ _ _ _ _ 
4 | _ _ Q P _ P N _ 
3 | _ _ P _ _ _ _ _ 
2 | P P _ _ P _ P P 
1 | R N B K _ B N R 
-------------------
  | A B C D E F G H 

Turn of: white
Succesful move
g1f3
8 | R _ B Q _ _ _ R 
7 | P P P P K P P P 
6 | _ _ N B P _ _ _ 
5 | _ _ _ _ _ _ _ _ 
4 | _ _ Q P _ P N _ 
3 | _ _ P _ _ N _ _ 
2 | P P _ _ P _ P P 
1 | R N B K _ B _ R 
-------------------
  | A B C D E F G H 

Turn of: black
Succesful move
d6f4
8 | R _ B Q _ _ _ R 
7 | P P P P K P P P 
6 | _ _ N _ P _ _ _ 
5 | _ _ _ _ _ _ _ _ 
4 | _ _ Q P _ B N _ 
3 | _ _ P _ _ N _ _ 
2 | P P _ _ P _ P P 
1 | R N B K _ B _ R 
-------------------
  | A B C D E F G H 

Turn of: white
Succesful move
b2b3
8 | R _ B Q _ _ _ R 
7 | P P P P K P P P 
6 | _ _ N _ P _ _ _ 
5 | _ _ _ _ _ _ _ _ 
4 | _ _ Q P _ B N _ 
3 | _ P P _ _ N _ _ 
2 | P _ _ _ P _ P P 
1 | R N B K _ B _ R 
-------------------
  | A B C D E F G H 

Turn of: black
Succesful move
d7d5
8 | R _ B Q _ _ _ R 
7 | P P P _ K P P P 
6 | _ _ N _ P _ _ _ 
5 | _ _ _ P _ _ _ _ 
4 | _ _ Q P _ B N _ 
3 | _ P P _ _ N _ _ 
2 | P _ _ _ P _ P P 
1 | R N B K _ B _ R 
-------------------
  | A B C D E F G H 

We are playing as White
Move history:
d2d4
g8f6
c2c3
b8c6
d1a4
e7e6
a4c4
f8d6
e1d1
e8e7
f2f4
f6g4
g1f3
d6f4
b2b3
d7d5
8 | R _ B Q _ _ _ R 
7 | P P P _ K P P P 
6 | _ _ N _ P _ _ _ 
5 | _ _ _ P _ _ _ _ 
4 | _ _ Q P _ B N _ 
3 | _ P P _ _ N _ _ 
2 | P _ _ _ P _ P P 
1 | R N B K _ B _ R 
-------------------
  | A B C D E F G H 

It is white's turn to play.
AI's move: g2g3
Move written: g2g3
[32;1m[Game] [0mPlayer's error code: 0
[32;1m[Game] [0mChecking move validity...
[32;1m[Board] [0mInitializing board...
[32;1m[Board] [0mLoading history file `championship/lizzie-iii-bbd/history.csv`...
[32;1m[Board] [0mLoaded 16 move(s).
[32;1m[Board] [0mLoading move file `championship/lizzie-iii-bbd/move.csv`...
[32;1m[Board] [0mWhite player is playing g2 to g3.
[32;1m[Board] [0m
[32;1m[Board] [0m    a b c d e f g h 
[32;1m[Board] [0m  -------------------
[32;1m[Board] [0m8 ||[30;1mr[0m| |[30;1mb[0m|[30;1mQ[0m|[7;1m [0m| |[7;1m [0m|[30;1mr[0m|| 8
[32;1m[Board] [0m  -------------------
[32;1m[Board] [0m7 ||[30;1mp[0m|[30;1mp[0m|[30;1mp[0m|[7;1m [0m|[30;1mK[0m|[30;1mp[0m|[30;1mp[0m|[30;1mp[0m|| 7
[32;1m[Board] [0m  -------------------
[32;1m[Board] [0m6 ||[7;1m [0m| |[30;1mk[0m| |[30;1mp[0m| |[7;1m [0m| || 6
[32;1m[Board] [0m  -------------------
[32;1m[Board] [0m5 || |[7;1m [0m| |[30;1mp[0m| |[7;1m [0m| |[7;1m [0m|| 5
[32;1m[Board] [0m  -------------------
[32;1m[Board] [0m4 ||[7;1m [0m| |[0;1mQ[0m|[0;1mp[0m|[7;1m [0m|[30;1mb[0m|[30;1mk[0m| || 4
[32;1m[Board] [0m  -------------------
[32;1m[Board] [0m3 || |[0;1mp[0m|[0;1mp[0m|[7;1m [0m| |[0;1mk[0m|[0;1mp[0m|[7;1m [0m|| 3
[32;1m[Board] [0m  -------------------
[32;1m[Board] [0m2 ||[0;1mp[0m| |[7;1m [0m| |[0;1mp[0m| |[7;1m [0m|[0;1mp[0m|| 2
[32;1m[Board] [0m  -------------------
[32;1m[Board] [0m1 ||[0;1mr[0m|[0;1mk[0m|[0;1mb[0m|[0;1mK[0m| |[0;1mb[0m| |[0;1mr[0m|| 1
[32;1m[Board] [0m  -------------------
[32;1m[Board] [0m    a b c d e f g h
[32;1m[Board] [0m
[32;1m[Referee] [0mThis is the turn of the Black player...
info score 1112 depth 1 nodes 115 time 0
info score 1294 depth 2 nodes 593 time 1
info score 1294 depth 3 nodes 2968 time 7
info score 1326 depth 4 nodes 17808 time 46
info score 1326 depth 5 nodes 103880 time 257
info score 1383 depth 6 nodes 497078 time 1208
bestmove d5c4
[32;1m[Game] [0mPlayer's error code: 0
[32;1m[Game] [0mChecking move validity...
[32;1m[Board] [0mInitializing board...
[32;1m[Board] [0mLoading history file `championship/lizzie-iii-bbd/history.csv`...
[32;1m[Board] [0mLoaded 17 move(s).
[32;1m[Board] [0mLoading move file `championship/lizzie-iii-bbd/move.csv`...
[32;1m[Board] [0mBlack player is playing d5 to c4.
[32;1m[Board] [0m[5;1mBlack Pawn is taking White Queen.[0m
[32;1m[Board] [0m
[32;1m[Board] [0m    a b c d e f g h 
[32;1m[Board] [0m  -------------------
[32;1m[Board] [0m8 ||[30;1mr[0m| |[30;1mb[0m|[30;1mQ[0m|[7;1m [0m| |[7;1m [0m|[30;1mr[0m|| 8
[32;1m[Board] [0m  -------------------
[32;1m[Board] [0m7 ||[30;1mp[0m|[30;1mp[0m|[30;1mp[0m|[7;1m [0m|[30;1mK[0m|[30;1mp[0m|[30;1mp[0m|[30;1mp[0m|| 7
[32;1m[Board] [0m  -------------------
[32;1m[Board] [0m6 ||[7;1m [0m| |[30;1mk[0m| |[30;1mp[0m| |[7;1m [0m| || 6
[32;1m[Board] [0m  -------------------
[32;1m[Board] [0m5 || |[7;1m [0m| |[7;1m [0m| |[7;1m [0m| |[7;1m [0m|| 5
[32;1m[Board] [0m  -------------------
[32;1m[Board] [0m4 ||[7;1m [0m| |[30;1mp[0m|[0;1mp[0m|[7;1m [0m|[30;1mb[0m|[30;1mk[0m| || 4
[32;1m[Board] [0m  -------------------
[32;1m[Board] [0m3 || |[0;1mp[0m|[0;1mp[0m|[7;1m [0m| |[0;1mk[0m|[0;1mp[0m|[7;1m [0m|| 3
[32;1m[Board] [0m  -------------------
[32;1m[Board] [0m2 ||[0;1mp[0m| |[7;1m [0m| |[0;1mp[0m| |[7;1m [0m|[0;1mp[0m|| 2
[32;1m[Board] [0m  -------------------
[32;1m[Board] [0m1 ||[0;1mr[0m|[0;1mk[0m|[0;1mb[0m|[0;1mK[0m| |[0;1mb[0m| |[0;1mr[0m|| 1
[32;1m[Board] [0m  -------------------
[32;1m[Board] [0m    a b c d e f g h
[32;1m[Board] [0m
[32;1m[Referee] [0mThis is the turn of the White player...
Input file: championship/lizzie-iii-bbd/history.csv
Output file: championship/lizzie-iii-bbd/move.csv
Turn of: white
Succesful move
d2d4
8 | R N B Q K B N R 
7 | P P P P P P P P 
6 | _ _ _ _ _ _ _ _ 
5 | _ _ _ _ _ _ _ _ 
4 | _ _ _ P _ _ _ _ 
3 | _ _ _ _ _ _ _ _ 
2 | P P P _ P P P P 
1 | R N B Q K B N R 
-------------------
  | A B C D E F G H 

Turn of: black
Succesful move
g8f6
8 | R N B Q K B _ R 
7 | P P P P P P P P 
6 | _ _ _ _ _ N _ _ 
5 | _ _ _ _ _ _ _ _ 
4 | _ _ _ P _ _ _ _ 
3 | _ _ _ _ _ _ _ _ 
2 | P P P _ P P P P 
1 | R N B Q K B N R 
-------------------
  | A B C D E F G H 

Turn of: white
Succesful move
c2c3
8 | R N B Q K B _ R 
7 | P P P P P P P P 
6 | _ _ _ _ _ N _ _ 
5 | _ _ _ _ _ _ _ _ 
4 | _ _ _ P _ _ _ _ 
3 | _ _ P _ _ _ _ _ 
2 | P P _ _ P P P P 
1 | R N B Q K B N R 
-------------------
  | A B C D E F G H 

Turn of: black
Succesful move
b8c6
8 | R _ B Q K B _ R 
7 | P P P P P P P P 
6 | _ _ N _ _ N _ _ 
5 | _ _ _ _ _ _ _ _ 
4 | _ _ _ P _ _ _ _ 
3 | _ _ P _ _ _ _ _ 
2 | P P _ _ P P P P 
1 | R N B Q K B N R 
-------------------
  | A B C D E F G H 

Turn of: white
Succesful move
d1a4
8 | R _ B Q K B _ R 
7 | P P P P P P P P 
6 | _ _ N _ _ N _ _ 
5 | _ _ _ _ _ _ _ _ 
4 | Q _ _ P _ _ _ _ 
3 | _ _ P _ _ _ _ _ 
2 | P P _ _ P P P P 
1 | R N B _ K B N R 
-------------------
  | A B C D E F G H 

Turn of: black
Succesful move
e7e6
8 | R _ B Q K B _ R 
7 | P P P P _ P P P 
6 | _ _ N _ P N _ _ 
5 | _ _ _ _ _ _ _ _ 
4 | Q _ _ P _ _ _ _ 
3 | _ _ P _ _ _ _ _ 
2 | P P _ _ P P P P 
1 | R N B _ K B N R 
-------------------
  | A B C D E F G H 

Turn of: white
Succesful move
a4c4
8 | R _ B Q K B _ R 
7 | P P P P _ P P P 
6 | _ _ N _ P N _ _ 
5 | _ _ _ _ _ _ _ _ 
4 | _ _ Q P _ _ _ _ 
3 | _ _ P _ _ _ _ _ 
2 | P P _ _ P P P P 
1 | R N B _ K B N R 
-------------------
  | A B C D E F G H 

Turn of: black
Succesful move
f8d6
8 | R _ B Q K _ _ R 
7 | P P P P _ P P P 
6 | _ _ N B P N _ _ 
5 | _ _ _ _ _ _ _ _ 
4 | _ _ Q P _ _ _ _ 
3 | _ _ P _ _ _ _ _ 
2 | P P _ _ P P P P 
1 | R N B _ K B N R 
-------------------
  | A B C D E F G H 

Turn of: white
Succesful move
e1d1
8 | R _ B Q K _ _ R 
7 | P P P P _ P P P 
6 | _ _ N B P N _ _ 
5 | _ _ _ _ _ _ _ _ 
4 | _ _ Q P _ _ _ _ 
3 | _ _ P _ _ _ _ _ 
2 | P P _ _ P P P P 
1 | R N B K _ B N R 
-------------------
  | A B C D E F G H 

Turn of: black
Succesful move
e8e7
8 | R _ B Q _ _ _ R 
7 | P P P P K P P P 
6 | _ _ N B P N _ _ 
5 | _ _ _ _ _ _ _ _ 
4 | _ _ Q P _ _ _ _ 
3 | _ _ P _ _ _ _ _ 
2 | P P _ _ P P P P 
1 | R N B K _ B N R 
-------------------
  | A B C D E F G H 

Turn of: white
Succesful move
f2f4
8 | R _ B Q _ _ _ R 
7 | P P P P K P P P 
6 | _ _ N B P N _ _ 
5 | _ _ _ _ _ _ _ _ 
4 | _ _ Q P _ P _ _ 
3 | _ _ P _ _ _ _ _ 
2 | P P _ _ P _ P P 
1 | R N B K _ B N R 
-------------------
  | A B C D E F G H 

Turn of: black
Succesful move
f6g4
8 | R _ B Q _ _ _ R 
7 | P P P P K P P P 
6 | _ _ N B P _ _ _ 
5 | _ _ _ _ _ _ _ _ 
4 | _ _ Q P _ P N _ 
3 | _ _ P _ _ _ _ _ 
2 | P P _ _ P _ P P 
1 | R N B K _ B N R 
-------------------
  | A B C D E F G H 

Turn of: white
Succesful move
g1f3
8 | R _ B Q _ _ _ R 
7 | P P P P K P P P 
6 | _ _ N B P _ _ _ 
5 | _ _ _ _ _ _ _ _ 
4 | _ _ Q P _ P N _ 
3 | _ _ P _ _ N _ _ 
2 | P P _ _ P _ P P 
1 | R N B K _ B _ R 
-------------------
  | A B C D E F G H 

Turn of: black
Succesful move
d6f4
8 | R _ B Q _ _ _ R 
7 | P P P P K P P P 
6 | _ _ N _ P _ _ _ 
5 | _ _ _ _ _ _ _ _ 
4 | _ _ Q P _ B N _ 
3 | _ _ P _ _ N _ _ 
2 | P P _ _ P _ P P 
1 | R N B K _ B _ R 
-------------------
  | A B C D E F G H 

Turn of: white
Succesful move
b2b3
8 | R _ B Q _ _ _ R 
7 | P P P P K P P P 
6 | _ _ N _ P _ _ _ 
5 | _ _ _ _ _ _ _ _ 
4 | _ _ Q P _ B N _ 
3 | _ P P _ _ N _ _ 
2 | P _ _ _ P _ P P 
1 | R N B K _ B _ R 
-------------------
  | A B C D E F G H 

Turn of: black
Succesful move
d7d5
8 | R _ B Q _ _ _ R 
7 | P P P _ K P P P 
6 | _ _ N _ P _ _ _ 
5 | _ _ _ P _ _ _ _ 
4 | _ _ Q P _ B N _ 
3 | _ P P _ _ N _ _ 
2 | P _ _ _ P _ P P 
1 | R N B K _ B _ R 
-------------------
  | A B C D E F G H 

Turn of: white
Succesful move
g2g3
8 | R _ B Q _ _ _ R 
7 | P P P _ K P P P 
6 | _ _ N _ P _ _ _ 
5 | _ _ _ P _ _ _ _ 
4 | _ _ Q P _ B N _ 
3 | _ P P _ _ N P _ 
2 | P _ _ _ P _ _ P 
1 | R N B K _ B _ R 
-------------------
  | A B C D E F G H 

Turn of: black
Succesful move
d5c4
8 | R _ B Q _ _ _ R 
7 | P P P _ K P P P 
6 | _ _ N _ P _ _ _ 
5 | _ _ _ _ _ _ _ _ 
4 | _ _ P P _ B N _ 
3 | _ P P _ _ N P _ 
2 | P _ _ _ P _ _ P 
1 | R N B K _ B _ R 
-------------------
  | A B C D E F G H 

We are playing as White
Move history:
d2d4
g8f6
c2c3
b8c6
d1a4
e7e6
a4c4
f8d6
e1d1
e8e7
f2f4
f6g4
g1f3
d6f4
b2b3
d7d5
g2g3
d5c4
8 | R _ B Q _ _ _ R 
7 | P P P _ K P P P 
6 | _ _ N _ P _ _ _ 
5 | _ _ _ _ _ _ _ _ 
4 | _ _ P P _ B N _ 
3 | _ P P _ _ N P _ 
2 | P _ _ _ P _ _ P 
1 | R N B K _ B _ R 
-------------------
  | A B C D E F G H 

It is white's turn to play.
AI's move: d1c2
Move written: d1c2
[32;1m[Game] [0mPlayer's error code: 0
[32;1m[Game] [0mChecking move validity...
[32;1m[Board] [0mInitializing board...
[32;1m[Board] [0mLoading history file `championship/lizzie-iii-bbd/history.csv`...
[32;1m[Board] [0mLoaded 18 move(s).
[32;1m[Board] [0mLoading move file `championship/lizzie-iii-bbd/move.csv`...
[32;1m[Board] [0mWhite player is playing d1 to c2.
[32;1m[Board] [0m
[32;1m[Board] [0m    a b c d e f g h 
[32;1m[Board] [0m  -------------------
[32;1m[Board] [0m8 ||[30;1mr[0m| |[30;1mb[0m|[30;1mQ[0m|[7;1m [0m| |[7;1m [0m|[30;1mr[0m|| 8
[32;1m[Board] [0m  -------------------
[32;1m[Board] [0m7 ||[30;1mp[0m|[30;1mp[0m|[30;1mp[0m|[7;1m [0m|[30;1mK[0m|[30;1mp[0m|[30;1mp[0m|[30;1mp[0m|| 7
[32;1m[Board] [0m  -------------------
[32;1m[Board] [0m6 ||[7;1m [0m| |[30;1mk[0m| |[30;1mp[0m| |[7;1m [0m| || 6
[32;1m[Board] [0m  -------------------
[32;1m[Board] [0m5 || |[7;1m [0m| |[7;1m [0m| |[7;1m [0m| |[7;1m [0m|| 5
[32;1m[Board] [0m  -------------------
[32;1m[Board] [0m4 ||[7;1m [0m| |[30;1mp[0m|[0;1mp[0m|[7;1m [0m|[30;1mb[0m|[30;1mk[0m| || 4
[32;1m[Board] [0m  -------------------
[32;1m[Board] [0m3 || |[0;1mp[0m|[0;1mp[0m|[7;1m [0m| |[0;1mk[0m|[0;1mp[0m|[7;1m [0m|| 3
[32;1m[Board] [0m  -------------------
[32;1m[Board] [0m2 ||[0;1mp[0m| |[0;1mK[0m| |[0;1mp[0m| |[7;1m [0m|[0;1mp[0m|| 2
[32;1m[Board] [0m  -------------------
[32;1m[Board] [0m1 ||[0;1mr[0m|[0;1mk[0m|[0;1mb[0m|[7;1m [0m| |[0;1mb[0m| |[0;1mr[0m|| 1
[32;1m[Board] [0m  -------------------
[32;1m[Board] [0m    a b c d e f g h
[32;1m[Board] [0m
[32;1m[Referee] [0mThis is the turn of the Black player...
info score 1568 depth 1 nodes 88 time 0
info score 1575 depth 2 nodes 864 time 2
info score 1597 depth 3 nodes 6821 time 15
info score 1522 depth 4 nodes 22704 time 52
info score 1559 depth 5 nodes 111993 time 255
info score 1491 depth 6 nodes 597316 time 1413
bestmove c4b3
[32;1m[Game] [0mPlayer's error code: 0
[32;1m[Game] [0mChecking move validity...
[32;1m[Board] [0mInitializing board...
[32;1m[Board] [0mLoading history file `championship/lizzie-iii-bbd/history.csv`...
[32;1m[Board] [0mLoaded 19 move(s).
[32;1m[Board] [0mLoading move file `championship/lizzie-iii-bbd/move.csv`...
[32;1m[Board] [0mBlack player is playing c4 to b3.
[32;1m[Board] [0m[5;1mBlack Pawn is taking White Pawn.[0m
[32;1m[Board] [0m
[32;1m[Board] [0m    a b c d e f g h 
[32;1m[Board] [0m  -------------------
[32;1m[Board] [0m8 ||[30;1mr[0m| |[30;1mb[0m|[30;1mQ[0m|[7;1m [0m| |[7;1m [0m|[30;1mr[0m|| 8
[32;1m[Board] [0m  -------------------
[32;1m[Board] [0m7 ||[30;1mp[0m|[30;1mp[0m|[30;1mp[0m|[7;1m [0m|[30;1mK[0m|[30;1mp[0m|[30;1mp[0m|[30;1mp[0m|| 7
[32;1m[Board] [0m  -------------------
[32;1m[Board] [0m6 ||[7;1m [0m| |[30;1mk[0m| |[30;1mp[0m| |[7;1m [0m| || 6
[32;1m[Board] [0m  -------------------
[32;1m[Board] [0m5 || |[7;1m [0m| |[7;1m [0m| |[7;1m [0m| |[7;1m [0m|| 5
[32;1m[Board] [0m  -------------------
[32;1m[Board] [0m4 ||[7;1m [0m| |[7;1m [0m|[0;1mp[0m|[7;1m [0m|[30;1mb[0m|[30;1mk[0m| || 4
[32;1m[Board] [0m  -------------------
[32;1m[Board] [0m3 || |[30;1mp[0m|[0;1mp[0m|[7;1m [0m| |[0;1mk[0m|[0;1mp[0m|[7;1m [0m|| 3
[32;1m[Board] [0m  -------------------
[32;1m[Board] [0m2 ||[0;1mp[0m| |[0;1mK[0m| |[0;1mp[0m| |[7;1m [0m|[0;1mp[0m|| 2
[32;1m[Board] [0m  -------------------
[32;1m[Board] [0m1 ||[0;1mr[0m|[0;1mk[0m|[0;1mb[0m|[7;1m [0m| |[0;1mb[0m| |[0;1mr[0m|| 1
[32;1m[Board] [0m  -------------------
[32;1m[Board] [0m    a b c d e f g h
[32;1m[Board] [0m
[32;1m[Referee] [0mThis is the turn of the White player...
[32;1m[Board] [0m[33;1m[WARNING][0m [5;1mWhite King in check![0m
[32;1m[Board] [0m[33;1m[WARNING][0m    Threatened by Black Pawn (b3)
Input file: championship/lizzie-iii-bbd/history.csv
Output file: championship/lizzie-iii-bbd/move.csv
Turn of: white
Succesful move
d2d4
8 | R N B Q K B N R 
7 | P P P P P P P P 
6 | _ _ _ _ _ _ _ _ 
5 | _ _ _ _ _ _ _ _ 
4 | _ _ _ P _ _ _ _ 
3 | _ _ _ _ _ _ _ _ 
2 | P P P _ P P P P 
1 | R N B Q K B N R 
-------------------
  | A B C D E F G H 

Turn of: black
Succesful move
g8f6
8 | R N B Q K B _ R 
7 | P P P P P P P P 
6 | _ _ _ _ _ N _ _ 
5 | _ _ _ _ _ _ _ _ 
4 | _ _ _ P _ _ _ _ 
3 | _ _ _ _ _ _ _ _ 
2 | P P P _ P P P P 
1 | R N B Q K B N R 
-------------------
  | A B C D E F G H 

Turn of: white
Succesful move
c2c3
8 | R N B Q K B _ R 
7 | P P P P P P P P 
6 | _ _ _ _ _ N _ _ 
5 | _ _ _ _ _ _ _ _ 
4 | _ _ _ P _ _ _ _ 
3 | _ _ P _ _ _ _ _ 
2 | P P _ _ P P P P 
1 | R N B Q K B N R 
-------------------
  | A B C D E F G H 

Turn of: black
Succesful move
b8c6
8 | R _ B Q K B _ R 
7 | P P P P P P P P 
6 | _ _ N _ _ N _ _ 
5 | _ _ _ _ _ _ _ _ 
4 | _ _ _ P _ _ _ _ 
3 | _ _ P _ _ _ _ _ 
2 | P P _ _ P P P P 
1 | R N B Q K B N R 
-------------------
  | A B C D E F G H 

Turn of: white
Succesful move
d1a4
8 | R _ B Q K B _ R 
7 | P P P P P P P P 
6 | _ _ N _ _ N _ _ 
5 | _ _ _ _ _ _ _ _ 
4 | Q _ _ P _ _ _ _ 
3 | _ _ P _ _ _ _ _ 
2 | P P _ _ P P P P 
1 | R N B _ K B N R 
-------------------
  | A B C D E F G H 

Turn of: black
Succesful move
e7e6
8 | R _ B Q K B _ R 
7 | P P P P _ P P P 
6 | _ _ N _ P N _ _ 
5 | _ _ _ _ _ _ _ _ 
4 | Q _ _ P _ _ _ _ 
3 | _ _ P _ _ _ _ _ 
2 | P P _ _ P P P P 
1 | R N B _ K B N R 
-------------------
  | A B C D E F G H 

Turn of: white
Succesful move
a4c4
8 | R _ B Q K B _ R 
7 | P P P P _ P P P 
6 | _ _ N _ P N _ _ 
5 | _ _ _ _ _ _ _ _ 
4 | _ _ Q P _ _ _ _ 
3 | _ _ P _ _ _ _ _ 
2 | P P _ _ P P P P 
1 | R N B _ K B N R 
-------------------
  | A B C D E F G H 

Turn of: black
Succesful move
f8d6
8 | R _ B Q K _ _ R 
7 | P P P P _ P P P 
6 | _ _ N B P N _ _ 
5 | _ _ _ _ _ _ _ _ 
4 | _ _ Q P _ _ _ _ 
3 | _ _ P _ _ _ _ _ 
2 | P P _ _ P P P P 
1 | R N B _ K B N R 
-------------------
  | A B C D E F G H 

Turn of: white
Succesful move
e1d1
8 | R _ B Q K _ _ R 
7 | P P P P _ P P P 
6 | _ _ N B P N _ _ 
5 | _ _ _ _ _ _ _ _ 
4 | _ _ Q P _ _ _ _ 
3 | _ _ P _ _ _ _ _ 
2 | P P _ _ P P P P 
1 | R N B K _ B N R 
-------------------
  | A B C D E F G H 

Turn of: black
Succesful move
e8e7
8 | R _ B Q _ _ _ R 
7 | P P P P K P P P 
6 | _ _ N B P N _ _ 
5 | _ _ _ _ _ _ _ _ 
4 | _ _ Q P _ _ _ _ 
3 | _ _ P _ _ _ _ _ 
2 | P P _ _ P P P P 
1 | R N B K _ B N R 
-------------------
  | A B C D E F G H 

Turn of: white
Succesful move
f2f4
8 | R _ B Q _ _ _ R 
7 | P P P P K P P P 
6 | _ _ N B P N _ _ 
5 | _ _ _ _ _ _ _ _ 
4 | _ _ Q P _ P _ _ 
3 | _ _ P _ _ _ _ _ 
2 | P P _ _ P _ P P 
1 | R N B K _ B N R 
-------------------
  | A B C D E F G H 

Turn of: black
Succesful move
f6g4
8 | R _ B Q _ _ _ R 
7 | P P P P K P P P 
6 | _ _ N B P _ _ _ 
5 | _ _ _ _ _ _ _ _ 
4 | _ _ Q P _ P N _ 
3 | _ _ P _ _ _ _ _ 
2 | P P _ _ P _ P P 
1 | R N B K _ B N R 
-------------------
  | A B C D E F G H 

Turn of: white
Succesful move
g1f3
8 | R _ B Q _ _ _ R 
7 | P P P P K P P P 
6 | _ _ N B P _ _ _ 
5 | _ _ _ _ _ _ _ _ 
4 | _ _ Q P _ P N _ 
3 | _ _ P _ _ N _ _ 
2 | P P _ _ P _ P P 
1 | R N B K _ B _ R 
-------------------
  | A B C D E F G H 

Turn of: black
Succesful move
d6f4
8 | R _ B Q _ _ _ R 
7 | P P P P K P P P 
6 | _ _ N _ P _ _ _ 
5 | _ _ _ _ _ _ _ _ 
4 | _ _ Q P _ B N _ 
3 | _ _ P _ _ N _ _ 
2 | P P _ _ P _ P P 
1 | R N B K _ B _ R 
-------------------
  | A B C D E F G H 

Turn of: white
Succesful move
b2b3
8 | R _ B Q _ _ _ R 
7 | P P P P K P P P 
6 | _ _ N _ P _ _ _ 
5 | _ _ _ _ _ _ _ _ 
4 | _ _ Q P _ B N _ 
3 | _ P P _ _ N _ _ 
2 | P _ _ _ P _ P P 
1 | R N B K _ B _ R 
-------------------
  | A B C D E F G H 

Turn of: black
Succesful move
d7d5
8 | R _ B Q _ _ _ R 
7 | P P P _ K P P P 
6 | _ _ N _ P _ _ _ 
5 | _ _ _ P _ _ _ _ 
4 | _ _ Q P _ B N _ 
3 | _ P P _ _ N _ _ 
2 | P _ _ _ P _ P P 
1 | R N B K _ B _ R 
-------------------
  | A B C D E F G H 

Turn of: white
Succesful move
g2g3
8 | R _ B Q _ _ _ R 
7 | P P P _ K P P P 
6 | _ _ N _ P _ _ _ 
5 | _ _ _ P _ _ _ _ 
4 | _ _ Q P _ B N _ 
3 | _ P P _ _ N P _ 
2 | P _ _ _ P _ _ P 
1 | R N B K _ B _ R 
-------------------
  | A B C D E F G H 

Turn of: black
Succesful move
d5c4
8 | R _ B Q _ _ _ R 
7 | P P P _ K P P P 
6 | _ _ N _ P _ _ _ 
5 | _ _ _ _ _ _ _ _ 
4 | _ _ P P _ B N _ 
3 | _ P P _ _ N P _ 
2 | P _ _ _ P _ _ P 
1 | R N B K _ B _ R 
-------------------
  | A B C D E F G H 

Turn of: white
Succesful move
d1c2
8 | R _ B Q _ _ _ R 
7 | P P P _ K P P P 
6 | _ _ N _ P _ _ _ 
5 | _ _ _ _ _ _ _ _ 
4 | _ _ P P _ B N _ 
3 | _ P P _ _ N P _ 
2 | P _ K _ P _ _ P 
1 | R N B _ _ B _ R 
-------------------
  | A B C D E F G H 

Turn of: black
Succesful move
c4b3
8 | R _ B Q _ _ _ R 
7 | P P P _ K P P P 
6 | _ _ N _ P _ _ _ 
5 | _ _ _ _ _ _ _ _ 
4 | _ _ _ P _ B N _ 
3 | _ P P _ _ N P _ 
2 | P _ K _ P _ _ P 
1 | R N B _ _ B _ R 
-------------------
  | A B C D E F G H 

We are playing as White
Move history:
d2d4
g8f6
c2c3
b8c6
d1a4
e7e6
a4c4
f8d6
e1d1
e8e7
f2f4
f6g4
g1f3
d6f4
b2b3
d7d5
g2g3
d5c4
d1c2
c4b3
8 | R _ B Q _ _ _ R 
7 | P P P _ K P P P 
6 | _ _ N _ P _ _ _ 
5 | _ _ _ _ _ _ _ _ 
4 | _ _ _ P _ B N _ 
3 | _ P P _ _ N P _ 
2 | P _ K _ P _ _ P 
1 | R N B _ _ B _ R 
-------------------
  | A B C D E F G H 

It is white's turn to play.
AI's move: c2d3
Move written: c2d3
[32;1m[Game] [0mPlayer's error code: 0
[32;1m[Game] [0mChecking move validity...
[32;1m[Board] [0mInitializing board...
[32;1m[Board] [0mLoading history file `championship/lizzie-iii-bbd/history.csv`...
[32;1m[Board] [0mLoaded 20 move(s).
[32;1m[Board] [0mLoading move file `championship/lizzie-iii-bbd/move.csv`...
[32;1m[Board] [0mWhite player is playing c2 to d3.
[32;1m[Board] [0m
[32;1m[Board] [0m    a b c d e f g h 
[32;1m[Board] [0m  -------------------
[32;1m[Board] [0m8 ||[30;1mr[0m| |[30;1mb[0m|[30;1mQ[0m|[7;1m [0m| |[7;1m [0m|[30;1mr[0m|| 8
[32;1m[Board] [0m  -------------------
[32;1m[Board] [0m7 ||[30;1mp[0m|[30;1mp[0m|[30;1mp[0m|[7;1m [0m|[30;1mK[0m|[30;1mp[0m|[30;1mp[0m|[30;1mp[0m|| 7
[32;1m[Board] [0m  -------------------
[32;1m[Board] [0m6 ||[7;1m [0m| |[30;1mk[0m| |[30;1mp[0m| |[7;1m [0m| || 6
[32;1m[Board] [0m  -------------------
[32;1m[Board] [0m5 || |[7;1m [0m| |[7;1m [0m| |[7;1m [0m| |[7;1m [0m|| 5
[32;1m[Board] [0m  -------------------
[32;1m[Board] [0m4 ||[7;1m [0m| |[7;1m [0m|[0;1mp[0m|[7;1m [0m|[30;1mb[0m|[30;1mk[0m| || 4
[32;1m[Board] [0m  -------------------
[32;1m[Board] [0m3 || |[30;1mp[0m|[0;1mp[0m|[0;1mK[0m| |[0;1mk[0m|[0;1mp[0m|[7;1m [0m|| 3
[32;1m[Board] [0m  -------------------
[32;1m[Board] [0m2 ||[0;1mp[0m| |[7;1m [0m| |[0;1mp[0m| |[7;1m [0m|[0;1mp[0m|| 2
[32;1m[Board] [0m  -------------------
[32;1m[Board] [0m1 ||[0;1mr[0m|[0;1mk[0m|[0;1mb[0m|[7;1m [0m| |[0;1mb[0m| |[0;1mr[0m|| 1
[32;1m[Board] [0m  -------------------
[32;1m[Board] [0m    a b c d e f g h
[32;1m[Board] [0m
[32;1m[Referee] [0mThis is the turn of the Black player...
info score 1823 depth 1 nodes 973 time 2
info score 1814 depth 2 nodes 3419 time 7
info score 1814 depth 3 nodes 9258 time 21
info score 31997 depth 4 nodes 34457 time 81
info score 31997 depth 5 nodes 161371 time 380
bestmove g4f2
[32;1m[Game] [0mPlayer's error code: 0
[32;1m[Game] [0mChecking move validity...
[32;1m[Board] [0mInitializing board...
[32;1m[Board] [0mLoading history file `championship/lizzie-iii-bbd/history.csv`...
[32;1m[Board] [0mLoaded 21 move(s).
[32;1m[Board] [0mLoading move file `championship/lizzie-iii-bbd/move.csv`...
[32;1m[Board] [0mBlack player is playing g4 to f2.
[32;1m[Board] [0m
[32;1m[Board] [0m    a b c d e f g h 
[32;1m[Board] [0m  -------------------
[32;1m[Board] [0m8 ||[30;1mr[0m| |[30;1mb[0m|[30;1mQ[0m|[7;1m [0m| |[7;1m [0m|[30;1mr[0m|| 8
[32;1m[Board] [0m  -------------------
[32;1m[Board] [0m7 ||[30;1mp[0m|[30;1mp[0m|[30;1mp[0m|[7;1m [0m|[30;1mK[0m|[30;1mp[0m|[30;1mp[0m|[30;1mp[0m|| 7
[32;1m[Board] [0m  -------------------
[32;1m[Board] [0m6 ||[7;1m [0m| |[30;1mk[0m| |[30;1mp[0m| |[7;1m [0m| || 6
[32;1m[Board] [0m  -------------------
[32;1m[Board] [0m5 || |[7;1m [0m| |[7;1m [0m| |[7;1m [0m| |[7;1m [0m|| 5
[32;1m[Board] [0m  -------------------
[32;1m[Board] [0m4 ||[7;1m [0m| |[7;1m [0m|[0;1mp[0m|[7;1m [0m|[30;1mb[0m|[7;1m [0m| || 4
[32;1m[Board] [0m  -------------------
[32;1m[Board] [0m3 || |[30;1mp[0m|[0;1mp[0m|[0;1mK[0m| |[0;1mk[0m|[0;1mp[0m|[7;1m [0m|| 3
[32;1m[Board] [0m  -------------------
[32;1m[Board] [0m2 ||[0;1mp[0m| |[7;1m [0m| |[0;1mp[0m|[30;1mk[0m|[7;1m [0m|[0;1mp[0m|| 2
[32;1m[Board] [0m  -------------------
[32;1m[Board] [0m1 ||[0;1mr[0m|[0;1mk[0m|[0;1mb[0m|[7;1m [0m| |[0;1mb[0m| |[0;1mr[0m|| 1
[32;1m[Board] [0m  -------------------
[32;1m[Board] [0m    a b c d e f g h
[32;1m[Board] [0m
[32;1m[Referee] [0mThis is the turn of the White player...
[32;1m[Board] [0m[33;1m[WARNING][0m [5;1mWhite King in check![0m
[32;1m[Board] [0m[33;1m[WARNING][0m    Threatened by Black Knight (f2)
Input file: championship/lizzie-iii-bbd/history.csv
Output file: championship/lizzie-iii-bbd/move.csv
Turn of: white
Succesful move
d2d4
8 | R N B Q K B N R 
7 | P P P P P P P P 
6 | _ _ _ _ _ _ _ _ 
5 | _ _ _ _ _ _ _ _ 
4 | _ _ _ P _ _ _ _ 
3 | _ _ _ _ _ _ _ _ 
2 | P P P _ P P P P 
1 | R N B Q K B N R 
-------------------
  | A B C D E F G H 

Turn of: black
Succesful move
g8f6
8 | R N B Q K B _ R 
7 | P P P P P P P P 
6 | _ _ _ _ _ N _ _ 
5 | _ _ _ _ _ _ _ _ 
4 | _ _ _ P _ _ _ _ 
3 | _ _ _ _ _ _ _ _ 
2 | P P P _ P P P P 
1 | R N B Q K B N R 
-------------------
  | A B C D E F G H 

Turn of: white
Succesful move
c2c3
8 | R N B Q K B _ R 
7 | P P P P P P P P 
6 | _ _ _ _ _ N _ _ 
5 | _ _ _ _ _ _ _ _ 
4 | _ _ _ P _ _ _ _ 
3 | _ _ P _ _ _ _ _ 
2 | P P _ _ P P P P 
1 | R N B Q K B N R 
-------------------
  | A B C D E F G H 

Turn of: black
Succesful move
b8c6
8 | R _ B Q K B _ R 
7 | P P P P P P P P 
6 | _ _ N _ _ N _ _ 
5 | _ _ _ _ _ _ _ _ 
4 | _ _ _ P _ _ _ _ 
3 | _ _ P _ _ _ _ _ 
2 | P P _ _ P P P P 
1 | R N B Q K B N R 
-------------------
  | A B C D E F G H 

Turn of: white
Succesful move
d1a4
8 | R _ B Q K B _ R 
7 | P P P P P P P P 
6 | _ _ N _ _ N _ _ 
5 | _ _ _ _ _ _ _ _ 
4 | Q _ _ P _ _ _ _ 
3 | _ _ P _ _ _ _ _ 
2 | P P _ _ P P P P 
1 | R N B _ K B N R 
-------------------
  | A B C D E F G H 

Turn of: black
Succesful move
e7e6
8 | R _ B Q K B _ R 
7 | P P P P _ P P P 
6 | _ _ N _ P N _ _ 
5 | _ _ _ _ _ _ _ _ 
4 | Q _ _ P _ _ _ _ 
3 | _ _ P _ _ _ _ _ 
2 | P P _ _ P P P P 
1 | R N B _ K B N R 
-------------------
  | A B C D E F G H 

Turn of: white
Succesful move
a4c4
8 | R _ B Q K B _ R 
7 | P P P P _ P P P 
6 | _ _ N _ P N _ _ 
5 | _ _ _ _ _ _ _ _ 
4 | _ _ Q P _ _ _ _ 
3 | _ _ P _ _ _ _ _ 
2 | P P _ _ P P P P 
1 | R N B _ K B N R 
-------------------
  | A B C D E F G H 

Turn of: black
Succesful move
f8d6
8 | R _ B Q K _ _ R 
7 | P P P P _ P P P 
6 | _ _ N B P N _ _ 
5 | _ _ _ _ _ _ _ _ 
4 | _ _ Q P _ _ _ _ 
3 | _ _ P _ _ _ _ _ 
2 | P P _ _ P P P P 
1 | R N B _ K B N R 
-------------------
  | A B C D E F G H 

Turn of: white
Succesful move
e1d1
8 | R _ B Q K _ _ R 
7 | P P P P _ P P P 
6 | _ _ N B P N _ _ 
5 | _ _ _ _ _ _ _ _ 
4 | _ _ Q P _ _ _ _ 
3 | _ _ P _ _ _ _ _ 
2 | P P _ _ P P P P 
1 | R N B K _ B N R 
-------------------
  | A B C D E F G H 

Turn of: black
Succesful move
e8e7
8 | R _ B Q _ _ _ R 
7 | P P P P K P P P 
6 | _ _ N B P N _ _ 
5 | _ _ _ _ _ _ _ _ 
4 | _ _ Q P _ _ _ _ 
3 | _ _ P _ _ _ _ _ 
2 | P P _ _ P P P P 
1 | R N B K _ B N R 
-------------------
  | A B C D E F G H 

Turn of: white
Succesful move
f2f4
8 | R _ B Q _ _ _ R 
7 | P P P P K P P P 
6 | _ _ N B P N _ _ 
5 | _ _ _ _ _ _ _ _ 
4 | _ _ Q P _ P _ _ 
3 | _ _ P _ _ _ _ _ 
2 | P P _ _ P _ P P 
1 | R N B K _ B N R 
-------------------
  | A B C D E F G H 

Turn of: black
Succesful move
f6g4
8 | R _ B Q _ _ _ R 
7 | P P P P K P P P 
6 | _ _ N B P _ _ _ 
5 | _ _ _ _ _ _ _ _ 
4 | _ _ Q P _ P N _ 
3 | _ _ P _ _ _ _ _ 
2 | P P _ _ P _ P P 
1 | R N B K _ B N R 
-------------------
  | A B C D E F G H 

Turn of: white
Succesful move
g1f3
8 | R _ B Q _ _ _ R 
7 | P P P P K P P P 
6 | _ _ N B P _ _ _ 
5 | _ _ _ _ _ _ _ _ 
4 | _ _ Q P _ P N _ 
3 | _ _ P _ _ N _ _ 
2 | P P _ _ P _ P P 
1 | R N B K _ B _ R 
-------------------
  | A B C D E F G H 

Turn of: black
Succesful move
d6f4
8 | R _ B Q _ _ _ R 
7 | P P P P K P P P 
6 | _ _ N _ P _ _ _ 
5 | _ _ _ _ _ _ _ _ 
4 | _ _ Q P _ B N _ 
3 | _ _ P _ _ N _ _ 
2 | P P _ _ P _ P P 
1 | R N B K _ B _ R 
-------------------
  | A B C D E F G H 

Turn of: white
Succesful move
b2b3
8 | R _ B Q _ _ _ R 
7 | P P P P K P P P 
6 | _ _ N _ P _ _ _ 
5 | _ _ _ _ _ _ _ _ 
4 | _ _ Q P _ B N _ 
3 | _ P P _ _ N _ _ 
2 | P _ _ _ P _ P P 
1 | R N B K _ B _ R 
-------------------
  | A B C D E F G H 

Turn of: black
Succesful move
d7d5
8 | R _ B Q _ _ _ R 
7 | P P P _ K P P P 
6 | _ _ N _ P _ _ _ 
5 | _ _ _ P _ _ _ _ 
4 | _ _ Q P _ B N _ 
3 | _ P P _ _ N _ _ 
2 | P _ _ _ P _ P P 
1 | R N B K _ B _ R 
-------------------
  | A B C D E F G H 

Turn of: white
Succesful move
g2g3
8 | R _ B Q _ _ _ R 
7 | P P P _ K P P P 
6 | _ _ N _ P _ _ _ 
5 | _ _ _ P _ _ _ _ 
4 | _ _ Q P _ B N _ 
3 | _ P P _ _ N P _ 
2 | P _ _ _ P _ _ P 
1 | R N B K _ B _ R 
-------------------
  | A B C D E F G H 

Turn of: black
Succesful move
d5c4
8 | R _ B Q _ _ _ R 
7 | P P P _ K P P P 
6 | _ _ N _ P _ _ _ 
5 | _ _ _ _ _ _ _ _ 
4 | _ _ P P _ B N _ 
3 | _ P P _ _ N P _ 
2 | P _ _ _ P _ _ P 
1 | R N B K _ B _ R 
-------------------
  | A B C D E F G H 

Turn of: white
Succesful move
d1c2
8 | R _ B Q _ _ _ R 
7 | P P P _ K P P P 
6 | _ _ N _ P _ _ _ 
5 | _ _ _ _ _ _ _ _ 
4 | _ _ P P _ B N _ 
3 | _ P P _ _ N P _ 
2 | P _ K _ P _ _ P 
1 | R N B _ _ B _ R 
-------------------
  | A B C D E F G H 

Turn of: black
Succesful move
c4b3
8 | R _ B Q _ _ _ R 
7 | P P P _ K P P P 
6 | _ _ N _ P _ _ _ 
5 | _ _ _ _ _ _ _ _ 
4 | _ _ _ P _ B N _ 
3 | _ P P _ _ N P _ 
2 | P _ K _ P _ _ P 
1 | R N B _ _ B _ R 
-------------------
  | A B C D E F G H 

Turn of: white
Succesful move
c2d3
8 | R _ B Q _ _ _ R 
7 | P P P _ K P P P 
6 | _ _ N _ P _ _ _ 
5 | _ _ _ _ _ _ _ _ 
4 | _ _ _ P _ B N _ 
3 | _ P P K _ N P _ 
2 | P _ _ _ P _ _ P 
1 | R N B _ _ B _ R 
-------------------
  | A B C D E F G H 

Turn of: black
Succesful move
g4f2
8 | R _ B Q _ _ _ R 
7 | P P P _ K P P P 
6 | _ _ N _ P _ _ _ 
5 | _ _ _ _ _ _ _ _ 
4 | _ _ _ P _ B _ _ 
3 | _ P P K _ N P _ 
2 | P _ _ _ P N _ P 
1 | R N B _ _ B _ R 
-------------------
  | A B C D E F G H 

We are playing as White
Move history:
d2d4
g8f6
c2c3
b8c6
d1a4
e7e6
a4c4
f8d6
e1d1
e8e7
f2f4
f6g4
g1f3
d6f4
b2b3
d7d5
g2g3
d5c4
d1c2
c4b3
c2d3
g4f2
8 | R _ B Q _ _ _ R 
7 | P P P _ K P P P 
6 | _ _ N _ P _ _ _ 
5 | _ _ _ _ _ _ _ _ 
4 | _ _ _ P _ B _ _ 
3 | _ P P K _ N P _ 
2 | P _ _ _ P N _ P 
1 | R N B _ _ B _ R 
-------------------
  | A B C D E F G H 

It is white's turn to play.
AI's move: d3c4
Move written: d3c4
[32;1m[Game] [0mPlayer's error code: 0
[32;1m[Game] [0mChecking move validity...
[32;1m[Board] [0mInitializing board...
[32;1m[Board] [0mLoading history file `championship/lizzie-iii-bbd/history.csv`...
[32;1m[Board] [0mLoaded 22 move(s).
[32;1m[Board] [0mLoading move file `championship/lizzie-iii-bbd/move.csv`...
[32;1m[Board] [0mWhite player is playing d3 to c4.
[32;1m[Board] [0m
[32;1m[Board] [0m    a b c d e f g h 
[32;1m[Board] [0m  -------------------
[32;1m[Board] [0m8 ||[30;1mr[0m| |[30;1mb[0m|[30;1mQ[0m|[7;1m [0m| |[7;1m [0m|[30;1mr[0m|| 8
[32;1m[Board] [0m  -------------------
[32;1m[Board] [0m7 ||[30;1mp[0m|[30;1mp[0m|[30;1mp[0m|[7;1m [0m|[30;1mK[0m|[30;1mp[0m|[30;1mp[0m|[30;1mp[0m|| 7
[32;1m[Board] [0m  -------------------
[32;1m[Board] [0m6 ||[7;1m [0m| |[30;1mk[0m| |[30;1mp[0m| |[7;1m [0m| || 6
[32;1m[Board] [0m  -------------------
[32;1m[Board] [0m5 || |[7;1m [0m| |[7;1m [0m| |[7;1m [0m| |[7;1m [0m|| 5
[32;1m[Board] [0m  -------------------
[32;1m[Board] [0m4 ||[7;1m [0m| |[0;1mK[0m|[0;1mp[0m|[7;1m [0m|[30;1mb[0m|[7;1m [0m| || 4
[32;1m[Board] [0m  -------------------
[32;1m[Board] [0m3 || |[30;1mp[0m|[0;1mp[0m|[7;1m [0m| |[0;1mk[0m|[0;1mp[0m|[7;1m [0m|| 3
[32;1m[Board] [0m  -------------------
[32;1m[Board] [0m2 ||[0;1mp[0m| |[7;1m [0m| |[0;1mp[0m|[30;1mk[0m|[7;1m [0m|[0;1mp[0m|| 2
[32;1m[Board] [0m  -------------------
[32;1m[Board] [0m1 ||[0;1mr[0m|[0;1mk[0m|[0;1mb[0m|[7;1m [0m| |[0;1mb[0m| |[0;1mr[0m|| 1
[32;1m[Board] [0m  -------------------
[32;1m[Board] [0m    a b c d e f g h
[32;1m[Board] [0m
[32;1m[Referee] [0mThis is the turn of the Black player...
info score 1810 depth 1 nodes 2241 time 5
info score 31999 depth 2 nodes 17122 time 36
info score 31999 depth 3 nodes 35501 time 76
info score 31999 depth 4 nodes 89867 time 197
info score 31999 depth 5 nodes 240948 time 539
info score 31999 depth 6 nodes 943045 time 1983
bestmove d8d5
[32;1m[Game] [0mPlayer's error code: 0
[32;1m[Game] [0mChecking move validity...
[32;1m[Board] [0mInitializing board...
[32;1m[Board] [0mLoading history file `championship/lizzie-iii-bbd/history.csv`...
[32;1m[Board] [0mLoaded 23 move(s).
[32;1m[Board] [0mLoading move file `championship/lizzie-iii-bbd/move.csv`...
[32;1m[Board] [0mBlack player is playing d8 to d5.
[32;1m[Board] [0m
[32;1m[Board] [0m    a b c d e f g h 
[32;1m[Board] [0m  -------------------
[32;1m[Board] [0m8 ||[30;1mr[0m| |[30;1mb[0m| |[7;1m [0m| |[7;1m [0m|[30;1mr[0m|| 8
[32;1m[Board] [0m  -------------------
[32;1m[Board] [0m7 ||[30;1mp[0m|[30;1mp[0m|[30;1mp[0m|[7;1m [0m|[30;1mK[0m|[30;1mp[0m|[30;1mp[0m|[30;1mp[0m|| 7
[32;1m[Board] [0m  -------------------
[32;1m[Board] [0m6 ||[7;1m [0m| |[30;1mk[0m| |[30;1mp[0m| |[7;1m [0m| || 6
[32;1m[Board] [0m  -------------------
[32;1m[Board] [0m5 || |[7;1m [0m| |[30;1mQ[0m| |[7;1m [0m| |[7;1m [0m|| 5
[32;1m[Board] [0m  -------------------
[32;1m[Board] [0m4 ||[7;1m [0m| |[0;1mK[0m|[0;1mp[0m|[7;1m [0m|[30;1mb[0m|[7;1m [0m| || 4
[32;1m[Board] [0m  -------------------
[32;1m[Board] [0m3 || |[30;1mp[0m|[0;1mp[0m|[7;1m [0m| |[0;1mk[0m|[0;1mp[0m|[7;1m [0m|| 3
[32;1m[Board] [0m  -------------------
[32;1m[Board] [0m2 ||[0;1mp[0m| |[7;1m [0m| |[0;1mp[0m|[30;1mk[0m|[7;1m [0m|[0;1mp[0m|| 2
[32;1m[Board] [0m  -------------------
[32;1m[Board] [0m1 ||[0;1mr[0m|[0;1mk[0m|[0;1mb[0m|[7;1m [0m| |[0;1mb[0m| |[0;1mr[0m|| 1
[32;1m[Board] [0m  -------------------
[32;1m[Board] [0m    a b c d e f g h
[32;1m[Board] [0m
[32;1m[Referee] [0mThis is the turn of the White player...
[32;1m[Board] [0m[33;1m[WARNING][0m [5;1mWhite King in checkmate![0m
[32;1m[Board] [0m[33;1m[WARNING][0m The Black player wins!
