[32;1m[Board] [0mInitializing board...
[32;1m[Board] [0m
[32;1m[Board] [0m    a b c d e f g h 
[32;1m[Board] [0m  -------------------
[32;1m[Board] [0m8 ||[30;1mr[0m|[30;1mk[0m|[30;1mb[0m|[30;1mQ[0m|[30;1mK[0m|[30;1mb[0m|[30;1mk[0m|[30;1mr[0m|| 8
[32;1m[Board] [0m  -------------------
[32;1m[Board] [0m7 ||[30;1mp[0m|[30;1mp[0m|[30;1mp[0m|[30;1mp[0m|[30;1mp[0m|[30;1mp[0m|[30;1mp[0m|[30;1mp[0m|| 7
[32;1m[Board] [0m  -------------------
[32;1m[Board] [0m6 ||[7;1m [0m| |[7;1m [0m| |[7;1m [0m| |[7;1m [0m| || 6
[32;1m[Board] [0m  -------------------
[32;1m[Board] [0m5 || |[7;1m [0m| |[7;1m [0m| |[7;1m [0m| |[7;1m [0m|| 5
[32;1m[Board] [0m  -------------------
[32;1m[Board] [0m4 ||[7;1m [0m| |[7;1m [0m| |[7;1m [0m| |[7;1m [0m| || 4
[32;1m[Board] [0m  -------------------
[32;1m[Board] [0m3 || |[7;1m [0m| |[7;1m [0m| |[7;1m [0m| |[7;1m [0m|| 3
[32;1m[Board] [0m  -------------------
[32;1m[Board] [0m2 ||[0;1mp[0m|[0;1mp[0m|[0;1mp[0m|[0;1mp[0m|[0;1mp[0m|[0;1mp[0m|[0;1mp[0m|[0;1mp[0m|| 2
[32;1m[Board] [0m  -------------------
[32;1m[Board] [0m1 ||[0;1mr[0m|[0;1mk[0m|[0;1mb[0m|[0;1mQ[0m|[0;1mK[0m|[0;1mb[0m|[0;1mk[0m|[0;1mr[0m|| 1
[32;1m[Board] [0m  -------------------
[32;1m[Board] [0m    a b c d e f g h
[32;1m[Board] [0m
[32;1m[Referee] [0mThis is the turn of the White player...
Input file: championship/lizzie-iii-the-terminator/history.csv
Output file: championship/lizzie-iii-the-terminator/move.csv
We are playing as White
Move history:
8 | R N B Q K B N R 
7 | P P P P P P P P 
6 | _ _ _ _ _ _ _ _ 
5 | _ _ _ _ _ _ _ _ 
4 | _ _ _ _ _ _ _ _ 
3 | _ _ _ _ _ _ _ _ 
2 | P P P P P P P P 
1 | R N B Q K B N R 
-------------------
  | A B C D E F G H 

It is white's turn to play.
AI's move: e2e4
Move written: e2e4
[32;1m[Game] [0mPlayer's error code: 0
[32;1m[Game] [0mChecking move validity...
[32;1m[Board] [0mInitializing board...
[32;1m[Board] [0mLoading history file `championship/lizzie-iii-the-terminator/history.csv`...
[32;1m[Board] [0mLoaded 0 move(s).
[32;1m[Board] [0mLoading move file `championship/lizzie-iii-the-terminator/move.csv`...
[32;1m[Board] [0mWhite player is playing e2 to e4.
[32;1m[Board] [0m
[32;1m[Board] [0m    a b c d e f g h 
[32;1m[Board] [0m  -------------------
[32;1m[Board] [0m8 ||[30;1mr[0m|[30;1mk[0m|[30;1mb[0m|[30;1mQ[0m|[30;1mK[0m|[30;1mb[0m|[30;1mk[0m|[30;1mr[0m|| 8
[32;1m[Board] [0m  -------------------
[32;1m[Board] [0m7 ||[30;1mp[0m|[30;1mp[0m|[30;1mp[0m|[30;1mp[0m|[30;1mp[0m|[30;1mp[0m|[30;1mp[0m|[30;1mp[0m|| 7
[32;1m[Board] [0m  -------------------
[32;1m[Board] [0m6 ||[7;1m [0m| |[7;1m [0m| |[7;1m [0m| |[7;1m [0m| || 6
[32;1m[Board] [0m  -------------------
[32;1m[Board] [0m5 || |[7;1m [0m| |[7;1m [0m| |[7;1m [0m| |[7;1m [0m|| 5
[32;1m[Board] [0m  -------------------
[32;1m[Board] [0m4 ||[7;1m [0m| |[7;1m [0m| |[0;1mp[0m| |[7;1m [0m| || 4
[32;1m[Board] [0m  -------------------
[32;1m[Board] [0m3 || |[7;1m [0m| |[7;1m [0m| |[7;1m [0m| |[7;1m [0m|| 3
[32;1m[Board] [0m  -------------------
[32;1m[Board] [0m2 ||[0;1mp[0m|[0;1mp[0m|[0;1mp[0m|[0;1mp[0m|[7;1m [0m|[0;1mp[0m|[0;1mp[0m|[0;1mp[0m|| 2
[32;1m[Board] [0m  -------------------
[32;1m[Board] [0m1 ||[0;1mr[0m|[0;1mk[0m|[0;1mb[0m|[0;1mQ[0m|[0;1mK[0m|[0;1mb[0m|[0;1mk[0m|[0;1mr[0m|| 1
[32;1m[Board] [0m  -------------------
[32;1m[Board] [0m    a b c d e f g h
[32;1m[Board] [0m
[32;1m[Referee] [0mThis is the turn of the Black player...
[32;1m[Game] [0mPlayer's error code: 0
[32;1m[Game] [0mChecking move validity...
[32;1m[Board] [0mInitializing board...
[32;1m[Board] [0mLoading history file `championship/lizzie-iii-the-terminator/history.csv`...
[32;1m[Board] [0mLoaded 1 move(s).
[32;1m[Board] [0mLoading move file `championship/lizzie-iii-the-terminator/move.csv`...
[32;1m[Board] [0mBlack player is playing b7 to b5.
[32;1m[Board] [0m
[32;1m[Board] [0m    a b c d e f g h 
[32;1m[Board] [0m  -------------------
[32;1m[Board] [0m8 ||[30;1mr[0m|[30;1mk[0m|[30;1mb[0m|[30;1mQ[0m|[30;1mK[0m|[30;1mb[0m|[30;1mk[0m|[30;1mr[0m|| 8
[32;1m[Board] [0m  -------------------
[32;1m[Board] [0m7 ||[30;1mp[0m|[7;1m [0m|[30;1mp[0m|[30;1mp[0m|[30;1mp[0m|[30;1mp[0m|[30;1mp[0m|[30;1mp[0m|| 7
[32;1m[Board] [0m  -------------------
[32;1m[Board] [0m6 ||[7;1m [0m| |[7;1m [0m| |[7;1m [0m| |[7;1m [0m| || 6
[32;1m[Board] [0m  -------------------
[32;1m[Board] [0m5 || |[30;1mp[0m| |[7;1m [0m| |[7;1m [0m| |[7;1m [0m|| 5
[32;1m[Board] [0m  -------------------
[32;1m[Board] [0m4 ||[7;1m [0m| |[7;1m [0m| |[0;1mp[0m| |[7;1m [0m| || 4
[32;1m[Board] [0m  -------------------
[32;1m[Board] [0m3 || |[7;1m [0m| |[7;1m [0m| |[7;1m [0m| |[7;1m [0m|| 3
[32;1m[Board] [0m  -------------------
[32;1m[Board] [0m2 ||[0;1mp[0m|[0;1mp[0m|[0;1mp[0m|[0;1mp[0m|[7;1m [0m|[0;1mp[0m|[0;1mp[0m|[0;1mp[0m|| 2
[32;1m[Board] [0m  -------------------
[32;1m[Board] [0m1 ||[0;1mr[0m|[0;1mk[0m|[0;1mb[0m|[0;1mQ[0m|[0;1mK[0m|[0;1mb[0m|[0;1mk[0m|[0;1mr[0m|| 1
[32;1m[Board] [0m  -------------------
[32;1m[Board] [0m    a b c d e f g h
[32;1m[Board] [0m
[32;1m[Referee] [0mThis is the turn of the White player...
Input file: championship/lizzie-iii-the-terminator/history.csv
Output file: championship/lizzie-iii-the-terminator/move.csv
Turn of: white
Succesful move
e2e4
8 | R N B Q K B N R 
7 | P P P P P P P P 
6 | _ _ _ _ _ _ _ _ 
5 | _ _ _ _ _ _ _ _ 
4 | _ _ _ _ P _ _ _ 
3 | _ _ _ _ _ _ _ _ 
2 | P P P P _ P P P 
1 | R N B Q K B N R 
-------------------
  | A B C D E F G H 

Turn of: black
Succesful move
b7b5
8 | R N B Q K B N R 
7 | P _ P P P P P P 
6 | _ _ _ _ _ _ _ _ 
5 | _ P _ _ _ _ _ _ 
4 | _ _ _ _ P _ _ _ 
3 | _ _ _ _ _ _ _ _ 
2 | P P P P _ P P P 
1 | R N B Q K B N R 
-------------------
  | A B C D E F G H 

We are playing as White
Move history:
e2e4
b7b5
8 | R N B Q K B N R 
7 | P _ P P P P P P 
6 | _ _ _ _ _ _ _ _ 
5 | _ P _ _ _ _ _ _ 
4 | _ _ _ _ P _ _ _ 
3 | _ _ _ _ _ _ _ _ 
2 | P P P P _ P P P 
1 | R N B Q K B N R 
-------------------
  | A B C D E F G H 

It is white's turn to play.
AI's move: g2g3
Move written: g2g3
[32;1m[Game] [0mPlayer's error code: 0
[32;1m[Game] [0mChecking move validity...
[32;1m[Board] [0mInitializing board...
[32;1m[Board] [0mLoading history file `championship/lizzie-iii-the-terminator/history.csv`...
[32;1m[Board] [0mLoaded 2 move(s).
[32;1m[Board] [0mLoading move file `championship/lizzie-iii-the-terminator/move.csv`...
[32;1m[Board] [0mWhite player is playing g2 to g3.
[32;1m[Board] [0m
[32;1m[Board] [0m    a b c d e f g h 
[32;1m[Board] [0m  -------------------
[32;1m[Board] [0m8 ||[30;1mr[0m|[30;1mk[0m|[30;1mb[0m|[30;1mQ[0m|[30;1mK[0m|[30;1mb[0m|[30;1mk[0m|[30;1mr[0m|| 8
[32;1m[Board] [0m  -------------------
[32;1m[Board] [0m7 ||[30;1mp[0m|[7;1m [0m|[30;1mp[0m|[30;1mp[0m|[30;1mp[0m|[30;1mp[0m|[30;1mp[0m|[30;1mp[0m|| 7
[32;1m[Board] [0m  -------------------
[32;1m[Board] [0m6 ||[7;1m [0m| |[7;1m [0m| |[7;1m [0m| |[7;1m [0m| || 6
[32;1m[Board] [0m  -------------------
[32;1m[Board] [0m5 || |[30;1mp[0m| |[7;1m [0m| |[7;1m [0m| |[7;1m [0m|| 5
[32;1m[Board] [0m  -------------------
[32;1m[Board] [0m4 ||[7;1m [0m| |[7;1m [0m| |[0;1mp[0m| |[7;1m [0m| || 4
[32;1m[Board] [0m  -------------------
[32;1m[Board] [0m3 || |[7;1m [0m| |[7;1m [0m| |[7;1m [0m|[0;1mp[0m|[7;1m [0m|| 3
[32;1m[Board] [0m  -------------------
[32;1m[Board] [0m2 ||[0;1mp[0m|[0;1mp[0m|[0;1mp[0m|[0;1mp[0m|[7;1m [0m|[0;1mp[0m|[7;1m [0m|[0;1mp[0m|| 2
[32;1m[Board] [0m  -------------------
[32;1m[Board] [0m1 ||[0;1mr[0m|[0;1mk[0m|[0;1mb[0m|[0;1mQ[0m|[0;1mK[0m|[0;1mb[0m|[0;1mk[0m|[0;1mr[0m|| 1
[32;1m[Board] [0m  -------------------
[32;1m[Board] [0m    a b c d e f g h
[32;1m[Board] [0m
[32;1m[Referee] [0mThis is the turn of the Black player...
[32;1m[Game] [0mPlayer's error code: 0
[32;1m[Game] [0mChecking move validity...
[32;1m[Board] [0mInitializing board...
[32;1m[Board] [0mLoading history file `championship/lizzie-iii-the-terminator/history.csv`...
[32;1m[Board] [0mLoaded 3 move(s).
[32;1m[Board] [0mLoading move file `championship/lizzie-iii-the-terminator/move.csv`...
[32;1m[Board] [0mBlack player is playing a7 to a6.
[32;1m[Board] [0m
[32;1m[Board] [0m    a b c d e f g h 
[32;1m[Board] [0m  -------------------
[32;1m[Board] [0m8 ||[30;1mr[0m|[30;1mk[0m|[30;1mb[0m|[30;1mQ[0m|[30;1mK[0m|[30;1mb[0m|[30;1mk[0m|[30;1mr[0m|| 8
[32;1m[Board] [0m  -------------------
[32;1m[Board] [0m7 || |[7;1m [0m|[30;1mp[0m|[30;1mp[0m|[30;1mp[0m|[30;1mp[0m|[30;1mp[0m|[30;1mp[0m|| 7
[32;1m[Board] [0m  -------------------
[32;1m[Board] [0m6 ||[30;1mp[0m| |[7;1m [0m| |[7;1m [0m| |[7;1m [0m| || 6
[32;1m[Board] [0m  -------------------
[32;1m[Board] [0m5 || |[30;1mp[0m| |[7;1m [0m| |[7;1m [0m| |[7;1m [0m|| 5
[32;1m[Board] [0m  -------------------
[32;1m[Board] [0m4 ||[7;1m [0m| |[7;1m [0m| |[0;1mp[0m| |[7;1m [0m| || 4
[32;1m[Board] [0m  -------------------
[32;1m[Board] [0m3 || |[7;1m [0m| |[7;1m [0m| |[7;1m [0m|[0;1mp[0m|[7;1m [0m|| 3
[32;1m[Board] [0m  -------------------
[32;1m[Board] [0m2 ||[0;1mp[0m|[0;1mp[0m|[0;1mp[0m|[0;1mp[0m|[7;1m [0m|[0;1mp[0m|[7;1m [0m|[0;1mp[0m|| 2
[32;1m[Board] [0m  -------------------
[32;1m[Board] [0m1 ||[0;1mr[0m|[0;1mk[0m|[0;1mb[0m|[0;1mQ[0m|[0;1mK[0m|[0;1mb[0m|[0;1mk[0m|[0;1mr[0m|| 1
[32;1m[Board] [0m  -------------------
[32;1m[Board] [0m    a b c d e f g h
[32;1m[Board] [0m
[32;1m[Referee] [0mThis is the turn of the White player...
Input file: championship/lizzie-iii-the-terminator/history.csv
Output file: championship/lizzie-iii-the-terminator/move.csv
Turn of: white
Succesful move
e2e4
8 | R N B Q K B N R 
7 | P P P P P P P P 
6 | _ _ _ _ _ _ _ _ 
5 | _ _ _ _ _ _ _ _ 
4 | _ _ _ _ P _ _ _ 
3 | _ _ _ _ _ _ _ _ 
2 | P P P P _ P P P 
1 | R N B Q K B N R 
-------------------
  | A B C D E F G H 

Turn of: black
Succesful move
b7b5
8 | R N B Q K B N R 
7 | P _ P P P P P P 
6 | _ _ _ _ _ _ _ _ 
5 | _ P _ _ _ _ _ _ 
4 | _ _ _ _ P _ _ _ 
3 | _ _ _ _ _ _ _ _ 
2 | P P P P _ P P P 
1 | R N B Q K B N R 
-------------------
  | A B C D E F G H 

Turn of: white
Succesful move
g2g3
8 | R N B Q K B N R 
7 | P _ P P P P P P 
6 | _ _ _ _ _ _ _ _ 
5 | _ P _ _ _ _ _ _ 
4 | _ _ _ _ P _ _ _ 
3 | _ _ _ _ _ _ P _ 
2 | P P P P _ P _ P 
1 | R N B Q K B N R 
-------------------
  | A B C D E F G H 

Turn of: black
Succesful move
a7a6
8 | R N B Q K B N R 
7 | _ _ P P P P P P 
6 | P _ _ _ _ _ _ _ 
5 | _ P _ _ _ _ _ _ 
4 | _ _ _ _ P _ _ _ 
3 | _ _ _ _ _ _ P _ 
2 | P P P P _ P _ P 
1 | R N B Q K B N R 
-------------------
  | A B C D E F G H 

We are playing as White
Move history:
e2e4
b7b5
g2g3
a7a6
8 | R N B Q K B N R 
7 | _ _ P P P P P P 
6 | P _ _ _ _ _ _ _ 
5 | _ P _ _ _ _ _ _ 
4 | _ _ _ _ P _ _ _ 
3 | _ _ _ _ _ _ P _ 
2 | P P P P _ P _ P 
1 | R N B Q K B N R 
-------------------
  | A B C D E F G H 

It is white's turn to play.
AI's move: h2h4
Move written: h2h4
[32;1m[Game] [0mPlayer's error code: 0
[32;1m[Game] [0mChecking move validity...
[32;1m[Board] [0mInitializing board...
[32;1m[Board] [0mLoading history file `championship/lizzie-iii-the-terminator/history.csv`...
[32;1m[Board] [0mLoaded 4 move(s).
[32;1m[Board] [0mLoading move file `championship/lizzie-iii-the-terminator/move.csv`...
[32;1m[Board] [0mWhite player is playing h2 to h4.
[32;1m[Board] [0m
[32;1m[Board] [0m    a b c d e f g h 
[32;1m[Board] [0m  -------------------
[32;1m[Board] [0m8 ||[30;1mr[0m|[30;1mk[0m|[30;1mb[0m|[30;1mQ[0m|[30;1mK[0m|[30;1mb[0m|[30;1mk[0m|[30;1mr[0m|| 8
[32;1m[Board] [0m  -------------------
[32;1m[Board] [0m7 || |[7;1m [0m|[30;1mp[0m|[30;1mp[0m|[30;1mp[0m|[30;1mp[0m|[30;1mp[0m|[30;1mp[0m|| 7
[32;1m[Board] [0m  -------------------
[32;1m[Board] [0m6 ||[30;1mp[0m| |[7;1m [0m| |[7;1m [0m| |[7;1m [0m| || 6
[32;1m[Board] [0m  -------------------
[32;1m[Board] [0m5 || |[30;1mp[0m| |[7;1m [0m| |[7;1m [0m| |[7;1m [0m|| 5
[32;1m[Board] [0m  -------------------
[32;1m[Board] [0m4 ||[7;1m [0m| |[7;1m [0m| |[0;1mp[0m| |[7;1m [0m|[0;1mp[0m|| 4
[32;1m[Board] [0m  -------------------
[32;1m[Board] [0m3 || |[7;1m [0m| |[7;1m [0m| |[7;1m [0m|[0;1mp[0m|[7;1m [0m|| 3
[32;1m[Board] [0m  -------------------
[32;1m[Board] [0m2 ||[0;1mp[0m|[0;1mp[0m|[0;1mp[0m|[0;1mp[0m|[7;1m [0m|[0;1mp[0m|[7;1m [0m| || 2
[32;1m[Board] [0m  -------------------
[32;1m[Board] [0m1 ||[0;1mr[0m|[0;1mk[0m|[0;1mb[0m|[0;1mQ[0m|[0;1mK[0m|[0;1mb[0m|[0;1mk[0m|[0;1mr[0m|| 1
[32;1m[Board] [0m  -------------------
[32;1m[Board] [0m    a b c d e f g h
[32;1m[Board] [0m
[32;1m[Referee] [0mThis is the turn of the Black player...
[32;1m[Game] [0mPlayer's error code: 0
[32;1m[Game] [0mChecking move validity...
[32;1m[Board] [0mInitializing board...
[32;1m[Board] [0mLoading history file `championship/lizzie-iii-the-terminator/history.csv`...
[32;1m[Board] [0mLoaded 5 move(s).
[32;1m[Board] [0mLoading move file `championship/lizzie-iii-the-terminator/move.csv`...
[32;1m[Board] [0mBlack player is playing c7 to c6.
[32;1m[Board] [0m
[32;1m[Board] [0m    a b c d e f g h 
[32;1m[Board] [0m  -------------------
[32;1m[Board] [0m8 ||[30;1mr[0m|[30;1mk[0m|[30;1mb[0m|[30;1mQ[0m|[30;1mK[0m|[30;1mb[0m|[30;1mk[0m|[30;1mr[0m|| 8
[32;1m[Board] [0m  -------------------
[32;1m[Board] [0m7 || |[7;1m [0m| |[30;1mp[0m|[30;1mp[0m|[30;1mp[0m|[30;1mp[0m|[30;1mp[0m|| 7
[32;1m[Board] [0m  -------------------
[32;1m[Board] [0m6 ||[30;1mp[0m| |[30;1mp[0m| |[7;1m [0m| |[7;1m [0m| || 6
[32;1m[Board] [0m  -------------------
[32;1m[Board] [0m5 || |[30;1mp[0m| |[7;1m [0m| |[7;1m [0m| |[7;1m [0m|| 5
[32;1m[Board] [0m  -------------------
[32;1m[Board] [0m4 ||[7;1m [0m| |[7;1m [0m| |[0;1mp[0m| |[7;1m [0m|[0;1mp[0m|| 4
[32;1m[Board] [0m  -------------------
[32;1m[Board] [0m3 || |[7;1m [0m| |[7;1m [0m| |[7;1m [0m|[0;1mp[0m|[7;1m [0m|| 3
[32;1m[Board] [0m  -------------------
[32;1m[Board] [0m2 ||[0;1mp[0m|[0;1mp[0m|[0;1mp[0m|[0;1mp[0m|[7;1m [0m|[0;1mp[0m|[7;1m [0m| || 2
[32;1m[Board] [0m  -------------------
[32;1m[Board] [0m1 ||[0;1mr[0m|[0;1mk[0m|[0;1mb[0m|[0;1mQ[0m|[0;1mK[0m|[0;1mb[0m|[0;1mk[0m|[0;1mr[0m|| 1
[32;1m[Board] [0m  -------------------
[32;1m[Board] [0m    a b c d e f g h
[32;1m[Board] [0m
[32;1m[Referee] [0mThis is the turn of the White player...
Input file: championship/lizzie-iii-the-terminator/history.csv
Output file: championship/lizzie-iii-the-terminator/move.csv
Turn of: white
Succesful move
e2e4
8 | R N B Q K B N R 
7 | P P P P P P P P 
6 | _ _ _ _ _ _ _ _ 
5 | _ _ _ _ _ _ _ _ 
4 | _ _ _ _ P _ _ _ 
3 | _ _ _ _ _ _ _ _ 
2 | P P P P _ P P P 
1 | R N B Q K B N R 
-------------------
  | A B C D E F G H 

Turn of: black
Succesful move
b7b5
8 | R N B Q K B N R 
7 | P _ P P P P P P 
6 | _ _ _ _ _ _ _ _ 
5 | _ P _ _ _ _ _ _ 
4 | _ _ _ _ P _ _ _ 
3 | _ _ _ _ _ _ _ _ 
2 | P P P P _ P P P 
1 | R N B Q K B N R 
-------------------
  | A B C D E F G H 

Turn of: white
Succesful move
g2g3
8 | R N B Q K B N R 
7 | P _ P P P P P P 
6 | _ _ _ _ _ _ _ _ 
5 | _ P _ _ _ _ _ _ 
4 | _ _ _ _ P _ _ _ 
3 | _ _ _ _ _ _ P _ 
2 | P P P P _ P _ P 
1 | R N B Q K B N R 
-------------------
  | A B C D E F G H 

Turn of: black
Succesful move
a7a6
8 | R N B Q K B N R 
7 | _ _ P P P P P P 
6 | P _ _ _ _ _ _ _ 
5 | _ P _ _ _ _ _ _ 
4 | _ _ _ _ P _ _ _ 
3 | _ _ _ _ _ _ P _ 
2 | P P P P _ P _ P 
1 | R N B Q K B N R 
-------------------
  | A B C D E F G H 

Turn of: white
Succesful move
h2h4
8 | R N B Q K B N R 
7 | _ _ P P P P P P 
6 | P _ _ _ _ _ _ _ 
5 | _ P _ _ _ _ _ _ 
4 | _ _ _ _ P _ _ P 
3 | _ _ _ _ _ _ P _ 
2 | P P P P _ P _ _ 
1 | R N B Q K B N R 
-------------------
  | A B C D E F G H 

Turn of: black
Succesful move
c7c6
8 | R N B Q K B N R 
7 | _ _ _ P P P P P 
6 | P _ P _ _ _ _ _ 
5 | _ P _ _ _ _ _ _ 
4 | _ _ _ _ P _ _ P 
3 | _ _ _ _ _ _ P _ 
2 | P P P P _ P _ _ 
1 | R N B Q K B N R 
-------------------
  | A B C D E F G H 

We are playing as White
Move history:
e2e4
b7b5
g2g3
a7a6
h2h4
c7c6
8 | R N B Q K B N R 
7 | _ _ _ P P P P P 
6 | P _ P _ _ _ _ _ 
5 | _ P _ _ _ _ _ _ 
4 | _ _ _ _ P _ _ P 
3 | _ _ _ _ _ _ P _ 
2 | P P P P _ P _ _ 
1 | R N B Q K B N R 
-------------------
  | A B C D E F G H 

It is white's turn to play.
AI's move: e4e5
Move written: e4e5
[32;1m[Game] [0mPlayer's error code: 0
[32;1m[Game] [0mChecking move validity...
[32;1m[Board] [0mInitializing board...
[32;1m[Board] [0mLoading history file `championship/lizzie-iii-the-terminator/history.csv`...
[32;1m[Board] [0mLoaded 6 move(s).
[32;1m[Board] [0mLoading move file `championship/lizzie-iii-the-terminator/move.csv`...
[32;1m[Board] [0mWhite player is playing e4 to e5.
[32;1m[Board] [0m
[32;1m[Board] [0m    a b c d e f g h 
[32;1m[Board] [0m  -------------------
[32;1m[Board] [0m8 ||[30;1mr[0m|[30;1mk[0m|[30;1mb[0m|[30;1mQ[0m|[30;1mK[0m|[30;1mb[0m|[30;1mk[0m|[30;1mr[0m|| 8
[32;1m[Board] [0m  -------------------
[32;1m[Board] [0m7 || |[7;1m [0m| |[30;1mp[0m|[30;1mp[0m|[30;1mp[0m|[30;1mp[0m|[30;1mp[0m|| 7
[32;1m[Board] [0m  -------------------
[32;1m[Board] [0m6 ||[30;1mp[0m| |[30;1mp[0m| |[7;1m [0m| |[7;1m [0m| || 6
[32;1m[Board] [0m  -------------------
[32;1m[Board] [0m5 || |[30;1mp[0m| |[7;1m [0m|[0;1mp[0m|[7;1m [0m| |[7;1m [0m|| 5
[32;1m[Board] [0m  -------------------
[32;1m[Board] [0m4 ||[7;1m [0m| |[7;1m [0m| |[7;1m [0m| |[7;1m [0m|[0;1mp[0m|| 4
[32;1m[Board] [0m  -------------------
[32;1m[Board] [0m3 || |[7;1m [0m| |[7;1m [0m| |[7;1m [0m|[0;1mp[0m|[7;1m [0m|| 3
[32;1m[Board] [0m  -------------------
[32;1m[Board] [0m2 ||[0;1mp[0m|[0;1mp[0m|[0;1mp[0m|[0;1mp[0m|[7;1m [0m|[0;1mp[0m|[7;1m [0m| || 2
[32;1m[Board] [0m  -------------------
[32;1m[Board] [0m1 ||[0;1mr[0m|[0;1mk[0m|[0;1mb[0m|[0;1mQ[0m|[0;1mK[0m|[0;1mb[0m|[0;1mk[0m|[0;1mr[0m|| 1
[32;1m[Board] [0m  -------------------
[32;1m[Board] [0m    a b c d e f g h
[32;1m[Board] [0m
[32;1m[Referee] [0mThis is the turn of the Black player...
[32;1m[Game] [0mPlayer's error code: 0
[32;1m[Game] [0mChecking move validity...
[32;1m[Board] [0mInitializing board...
[32;1m[Board] [0mLoading history file `championship/lizzie-iii-the-terminator/history.csv`...
[32;1m[Board] [0mLoaded 7 move(s).
[32;1m[Board] [0mLoading move file `championship/lizzie-iii-the-terminator/move.csv`...
[32;1m[Board] [0mBlack player is playing c6 to c5.
[32;1m[Board] [0m
[32;1m[Board] [0m    a b c d e f g h 
[32;1m[Board] [0m  -------------------
[32;1m[Board] [0m8 ||[30;1mr[0m|[30;1mk[0m|[30;1mb[0m|[30;1mQ[0m|[30;1mK[0m|[30;1mb[0m|[30;1mk[0m|[30;1mr[0m|| 8
[32;1m[Board] [0m  -------------------
[32;1m[Board] [0m7 || |[7;1m [0m| |[30;1mp[0m|[30;1mp[0m|[30;1mp[0m|[30;1mp[0m|[30;1mp[0m|| 7
[32;1m[Board] [0m  -------------------
[32;1m[Board] [0m6 ||[30;1mp[0m| |[7;1m [0m| |[7;1m [0m| |[7;1m [0m| || 6
[32;1m[Board] [0m  -------------------
[32;1m[Board] [0m5 || |[30;1mp[0m|[30;1mp[0m|[7;1m [0m|[0;1mp[0m|[7;1m [0m| |[7;1m [0m|| 5
[32;1m[Board] [0m  -------------------
[32;1m[Board] [0m4 ||[7;1m [0m| |[7;1m [0m| |[7;1m [0m| |[7;1m [0m|[0;1mp[0m|| 4
[32;1m[Board] [0m  -------------------
[32;1m[Board] [0m3 || |[7;1m [0m| |[7;1m [0m| |[7;1m [0m|[0;1mp[0m|[7;1m [0m|| 3
[32;1m[Board] [0m  -------------------
[32;1m[Board] [0m2 ||[0;1mp[0m|[0;1mp[0m|[0;1mp[0m|[0;1mp[0m|[7;1m [0m|[0;1mp[0m|[7;1m [0m| || 2
[32;1m[Board] [0m  -------------------
[32;1m[Board] [0m1 ||[0;1mr[0m|[0;1mk[0m|[0;1mb[0m|[0;1mQ[0m|[0;1mK[0m|[0;1mb[0m|[0;1mk[0m|[0;1mr[0m|| 1
[32;1m[Board] [0m  -------------------
[32;1m[Board] [0m    a b c d e f g h
[32;1m[Board] [0m
[32;1m[Referee] [0mThis is the turn of the White player...
Input file: championship/lizzie-iii-the-terminator/history.csv
Output file: championship/lizzie-iii-the-terminator/move.csv
Turn of: white
Succesful move
e2e4
8 | R N B Q K B N R 
7 | P P P P P P P P 
6 | _ _ _ _ _ _ _ _ 
5 | _ _ _ _ _ _ _ _ 
4 | _ _ _ _ P _ _ _ 
3 | _ _ _ _ _ _ _ _ 
2 | P P P P _ P P P 
1 | R N B Q K B N R 
-------------------
  | A B C D E F G H 

Turn of: black
Succesful move
b7b5
8 | R N B Q K B N R 
7 | P _ P P P P P P 
6 | _ _ _ _ _ _ _ _ 
5 | _ P _ _ _ _ _ _ 
4 | _ _ _ _ P _ _ _ 
3 | _ _ _ _ _ _ _ _ 
2 | P P P P _ P P P 
1 | R N B Q K B N R 
-------------------
  | A B C D E F G H 

Turn of: white
Succesful move
g2g3
8 | R N B Q K B N R 
7 | P _ P P P P P P 
6 | _ _ _ _ _ _ _ _ 
5 | _ P _ _ _ _ _ _ 
4 | _ _ _ _ P _ _ _ 
3 | _ _ _ _ _ _ P _ 
2 | P P P P _ P _ P 
1 | R N B Q K B N R 
-------------------
  | A B C D E F G H 

Turn of: black
Succesful move
a7a6
8 | R N B Q K B N R 
7 | _ _ P P P P P P 
6 | P _ _ _ _ _ _ _ 
5 | _ P _ _ _ _ _ _ 
4 | _ _ _ _ P _ _ _ 
3 | _ _ _ _ _ _ P _ 
2 | P P P P _ P _ P 
1 | R N B Q K B N R 
-------------------
  | A B C D E F G H 

Turn of: white
Succesful move
h2h4
8 | R N B Q K B N R 
7 | _ _ P P P P P P 
6 | P _ _ _ _ _ _ _ 
5 | _ P _ _ _ _ _ _ 
4 | _ _ _ _ P _ _ P 
3 | _ _ _ _ _ _ P _ 
2 | P P P P _ P _ _ 
1 | R N B Q K B N R 
-------------------
  | A B C D E F G H 

Turn of: black
Succesful move
c7c6
8 | R N B Q K B N R 
7 | _ _ _ P P P P P 
6 | P _ P _ _ _ _ _ 
5 | _ P _ _ _ _ _ _ 
4 | _ _ _ _ P _ _ P 
3 | _ _ _ _ _ _ P _ 
2 | P P P P _ P _ _ 
1 | R N B Q K B N R 
-------------------
  | A B C D E F G H 

Turn of: white
Succesful move
e4e5
8 | R N B Q K B N R 
7 | _ _ _ P P P P P 
6 | P _ P _ _ _ _ _ 
5 | _ P _ _ P _ _ _ 
4 | _ _ _ _ _ _ _ P 
3 | _ _ _ _ _ _ P _ 
2 | P P P P _ P _ _ 
1 | R N B Q K B N R 
-------------------
  | A B C D E F G H 

Turn of: black
Succesful move
c6c5
8 | R N B Q K B N R 
7 | _ _ _ P P P P P 
6 | P _ _ _ _ _ _ _ 
5 | _ P P _ P _ _ _ 
4 | _ _ _ _ _ _ _ P 
3 | _ _ _ _ _ _ P _ 
2 | P P P P _ P _ _ 
1 | R N B Q K B N R 
-------------------
  | A B C D E F G H 

We are playing as White
Move history:
e2e4
b7b5
g2g3
a7a6
h2h4
c7c6
e4e5
c6c5
8 | R N B Q K B N R 
7 | _ _ _ P P P P P 
6 | P _ _ _ _ _ _ _ 
5 | _ P P _ P _ _ _ 
4 | _ _ _ _ _ _ _ P 
3 | _ _ _ _ _ _ P _ 
2 | P P P P _ P _ _ 
1 | R N B Q K B N R 
-------------------
  | A B C D E F G H 

It is white's turn to play.
AI's move: d1g4
Move written: d1g4
[32;1m[Game] [0mPlayer's error code: 0
[32;1m[Game] [0mChecking move validity...
[32;1m[Board] [0mInitializing board...
[32;1m[Board] [0mLoading history file `championship/lizzie-iii-the-terminator/history.csv`...
[32;1m[Board] [0mLoaded 8 move(s).
[32;1m[Board] [0mLoading move file `championship/lizzie-iii-the-terminator/move.csv`...
[32;1m[Board] [0mWhite player is playing d1 to g4.
[32;1m[Board] [0m
[32;1m[Board] [0m    a b c d e f g h 
[32;1m[Board] [0m  -------------------
[32;1m[Board] [0m8 ||[30;1mr[0m|[30;1mk[0m|[30;1mb[0m|[30;1mQ[0m|[30;1mK[0m|[30;1mb[0m|[30;1mk[0m|[30;1mr[0m|| 8
[32;1m[Board] [0m  -------------------
[32;1m[Board] [0m7 || |[7;1m [0m| |[30;1mp[0m|[30;1mp[0m|[30;1mp[0m|[30;1mp[0m|[30;1mp[0m|| 7
[32;1m[Board] [0m  -------------------
[32;1m[Board] [0m6 ||[30;1mp[0m| |[7;1m [0m| |[7;1m [0m| |[7;1m [0m| || 6
[32;1m[Board] [0m  -------------------
[32;1m[Board] [0m5 || |[30;1mp[0m|[30;1mp[0m|[7;1m [0m|[0;1mp[0m|[7;1m [0m| |[7;1m [0m|| 5
[32;1m[Board] [0m  -------------------
[32;1m[Board] [0m4 ||[7;1m [0m| |[7;1m [0m| |[7;1m [0m| |[0;1mQ[0m|[0;1mp[0m|| 4
[32;1m[Board] [0m  -------------------
[32;1m[Board] [0m3 || |[7;1m [0m| |[7;1m [0m| |[7;1m [0m|[0;1mp[0m|[7;1m [0m|| 3
[32;1m[Board] [0m  -------------------
[32;1m[Board] [0m2 ||[0;1mp[0m|[0;1mp[0m|[0;1mp[0m|[0;1mp[0m|[7;1m [0m|[0;1mp[0m|[7;1m [0m| || 2
[32;1m[Board] [0m  -------------------
[32;1m[Board] [0m1 ||[0;1mr[0m|[0;1mk[0m|[0;1mb[0m|[7;1m [0m|[0;1mK[0m|[0;1mb[0m|[0;1mk[0m|[0;1mr[0m|| 1
[32;1m[Board] [0m  -------------------
[32;1m[Board] [0m    a b c d e f g h
[32;1m[Board] [0m
[32;1m[Referee] [0mThis is the turn of the Black player...
[32;1m[Game] [0mPlayer's error code: 0
[32;1m[Game] [0mChecking move validity...
[32;1m[Board] [0mInitializing board...
[32;1m[Board] [0mLoading history file `championship/lizzie-iii-the-terminator/history.csv`...
[32;1m[Board] [0mLoaded 9 move(s).
[32;1m[Board] [0mLoading move file `championship/lizzie-iii-the-terminator/move.csv`...
[32;1m[Board] [0mBlack player is playing d7 to d6.
[32;1m[Board] [0m
[32;1m[Board] [0m    a b c d e f g h 
[32;1m[Board] [0m  -------------------
[32;1m[Board] [0m8 ||[30;1mr[0m|[30;1mk[0m|[30;1mb[0m|[30;1mQ[0m|[30;1mK[0m|[30;1mb[0m|[30;1mk[0m|[30;1mr[0m|| 8
[32;1m[Board] [0m  -------------------
[32;1m[Board] [0m7 || |[7;1m [0m| |[7;1m [0m|[30;1mp[0m|[30;1mp[0m|[30;1mp[0m|[30;1mp[0m|| 7
[32;1m[Board] [0m  -------------------
[32;1m[Board] [0m6 ||[30;1mp[0m| |[7;1m [0m|[30;1mp[0m|[7;1m [0m| |[7;1m [0m| || 6
[32;1m[Board] [0m  -------------------
[32;1m[Board] [0m5 || |[30;1mp[0m|[30;1mp[0m|[7;1m [0m|[0;1mp[0m|[7;1m [0m| |[7;1m [0m|| 5
[32;1m[Board] [0m  -------------------
[32;1m[Board] [0m4 ||[7;1m [0m| |[7;1m [0m| |[7;1m [0m| |[0;1mQ[0m|[0;1mp[0m|| 4
[32;1m[Board] [0m  -------------------
[32;1m[Board] [0m3 || |[7;1m [0m| |[7;1m [0m| |[7;1m [0m|[0;1mp[0m|[7;1m [0m|| 3
[32;1m[Board] [0m  -------------------
[32;1m[Board] [0m2 ||[0;1mp[0m|[0;1mp[0m|[0;1mp[0m|[0;1mp[0m|[7;1m [0m|[0;1mp[0m|[7;1m [0m| || 2
[32;1m[Board] [0m  -------------------
[32;1m[Board] [0m1 ||[0;1mr[0m|[0;1mk[0m|[0;1mb[0m|[7;1m [0m|[0;1mK[0m|[0;1mb[0m|[0;1mk[0m|[0;1mr[0m|| 1
[32;1m[Board] [0m  -------------------
[32;1m[Board] [0m    a b c d e f g h
[32;1m[Board] [0m
[32;1m[Referee] [0mThis is the turn of the White player...
Input file: championship/lizzie-iii-the-terminator/history.csv
Output file: championship/lizzie-iii-the-terminator/move.csv
Turn of: white
Succesful move
e2e4
8 | R N B Q K B N R 
7 | P P P P P P P P 
6 | _ _ _ _ _ _ _ _ 
5 | _ _ _ _ _ _ _ _ 
4 | _ _ _ _ P _ _ _ 
3 | _ _ _ _ _ _ _ _ 
2 | P P P P _ P P P 
1 | R N B Q K B N R 
-------------------
  | A B C D E F G H 

Turn of: black
Succesful move
b7b5
8 | R N B Q K B N R 
7 | P _ P P P P P P 
6 | _ _ _ _ _ _ _ _ 
5 | _ P _ _ _ _ _ _ 
4 | _ _ _ _ P _ _ _ 
3 | _ _ _ _ _ _ _ _ 
2 | P P P P _ P P P 
1 | R N B Q K B N R 
-------------------
  | A B C D E F G H 

Turn of: white
Succesful move
g2g3
8 | R N B Q K B N R 
7 | P _ P P P P P P 
6 | _ _ _ _ _ _ _ _ 
5 | _ P _ _ _ _ _ _ 
4 | _ _ _ _ P _ _ _ 
3 | _ _ _ _ _ _ P _ 
2 | P P P P _ P _ P 
1 | R N B Q K B N R 
-------------------
  | A B C D E F G H 

Turn of: black
Succesful move
a7a6
8 | R N B Q K B N R 
7 | _ _ P P P P P P 
6 | P _ _ _ _ _ _ _ 
5 | _ P _ _ _ _ _ _ 
4 | _ _ _ _ P _ _ _ 
3 | _ _ _ _ _ _ P _ 
2 | P P P P _ P _ P 
1 | R N B Q K B N R 
-------------------
  | A B C D E F G H 

Turn of: white
Succesful move
h2h4
8 | R N B Q K B N R 
7 | _ _ P P P P P P 
6 | P _ _ _ _ _ _ _ 
5 | _ P _ _ _ _ _ _ 
4 | _ _ _ _ P _ _ P 
3 | _ _ _ _ _ _ P _ 
2 | P P P P _ P _ _ 
1 | R N B Q K B N R 
-------------------
  | A B C D E F G H 

Turn of: black
Succesful move
c7c6
8 | R N B Q K B N R 
7 | _ _ _ P P P P P 
6 | P _ P _ _ _ _ _ 
5 | _ P _ _ _ _ _ _ 
4 | _ _ _ _ P _ _ P 
3 | _ _ _ _ _ _ P _ 
2 | P P P P _ P _ _ 
1 | R N B Q K B N R 
-------------------
  | A B C D E F G H 

Turn of: white
Succesful move
e4e5
8 | R N B Q K B N R 
7 | _ _ _ P P P P P 
6 | P _ P _ _ _ _ _ 
5 | _ P _ _ P _ _ _ 
4 | _ _ _ _ _ _ _ P 
3 | _ _ _ _ _ _ P _ 
2 | P P P P _ P _ _ 
1 | R N B Q K B N R 
-------------------
  | A B C D E F G H 

Turn of: black
Succesful move
c6c5
8 | R N B Q K B N R 
7 | _ _ _ P P P P P 
6 | P _ _ _ _ _ _ _ 
5 | _ P P _ P _ _ _ 
4 | _ _ _ _ _ _ _ P 
3 | _ _ _ _ _ _ P _ 
2 | P P P P _ P _ _ 
1 | R N B Q K B N R 
-------------------
  | A B C D E F G H 

Turn of: white
Succesful move
d1g4
8 | R N B Q K B N R 
7 | _ _ _ P P P P P 
6 | P _ _ _ _ _ _ _ 
5 | _ P P _ P _ _ _ 
4 | _ _ _ _ _ _ Q P 
3 | _ _ _ _ _ _ P _ 
2 | P P P P _ P _ _ 
1 | R N B _ K B N R 
-------------------
  | A B C D E F G H 

Turn of: black
Succesful move
d7d6
8 | R N B Q K B N R 
7 | _ _ _ _ P P P P 
6 | P _ _ P _ _ _ _ 
5 | _ P P _ P _ _ _ 
4 | _ _ _ _ _ _ Q P 
3 | _ _ _ _ _ _ P _ 
2 | P P P P _ P _ _ 
1 | R N B _ K B N R 
-------------------
  | A B C D E F G H 

We are playing as White
Move history:
e2e4
b7b5
g2g3
a7a6
h2h4
c7c6
e4e5
c6c5
d1g4
d7d6
8 | R N B Q K B N R 
7 | _ _ _ _ P P P P 
6 | P _ _ P _ _ _ _ 
5 | _ P P _ P _ _ _ 
4 | _ _ _ _ _ _ Q P 
3 | _ _ _ _ _ _ P _ 
2 | P P P P _ P _ _ 
1 | R N B _ K B N R 
-------------------
  | A B C D E F G H 

It is white's turn to play.
AI's move: g4c8
Move written: g4c8
[32;1m[Game] [0mPlayer's error code: 0
[32;1m[Game] [0mChecking move validity...
[32;1m[Board] [0mInitializing board...
[32;1m[Board] [0mLoading history file `championship/lizzie-iii-the-terminator/history.csv`...
[32;1m[Board] [0mLoaded 10 move(s).
[32;1m[Board] [0mLoading move file `championship/lizzie-iii-the-terminator/move.csv`...
[32;1m[Board] [0mWhite player is playing g4 to c8.
[32;1m[Board] [0m[5;1mWhite Queen is taking Black Bishop.[0m
[32;1m[Board] [0m
[32;1m[Board] [0m    a b c d e f g h 
[32;1m[Board] [0m  -------------------
[32;1m[Board] [0m8 ||[30;1mr[0m|[30;1mk[0m|[0;1mQ[0m|[30;1mQ[0m|[30;1mK[0m|[30;1mb[0m|[30;1mk[0m|[30;1mr[0m|| 8
[32;1m[Board] [0m  -------------------
[32;1m[Board] [0m7 || |[7;1m [0m| |[7;1m [0m|[30;1mp[0m|[30;1mp[0m|[30;1mp[0m|[30;1mp[0m|| 7
[32;1m[Board] [0m  -------------------
[32;1m[Board] [0m6 ||[30;1mp[0m| |[7;1m [0m|[30;1mp[0m|[7;1m [0m| |[7;1m [0m| || 6
[32;1m[Board] [0m  -------------------
[32;1m[Board] [0m5 || |[30;1mp[0m|[30;1mp[0m|[7;1m [0m|[0;1mp[0m|[7;1m [0m| |[7;1m [0m|| 5
[32;1m[Board] [0m  -------------------
[32;1m[Board] [0m4 ||[7;1m [0m| |[7;1m [0m| |[7;1m [0m| |[7;1m [0m|[0;1mp[0m|| 4
[32;1m[Board] [0m  -------------------
[32;1m[Board] [0m3 || |[7;1m [0m| |[7;1m [0m| |[7;1m [0m|[0;1mp[0m|[7;1m [0m|| 3
[32;1m[Board] [0m  -------------------
[32;1m[Board] [0m2 ||[0;1mp[0m|[0;1mp[0m|[0;1mp[0m|[0;1mp[0m|[7;1m [0m|[0;1mp[0m|[7;1m [0m| || 2
[32;1m[Board] [0m  -------------------
[32;1m[Board] [0m1 ||[0;1mr[0m|[0;1mk[0m|[0;1mb[0m|[7;1m [0m|[0;1mK[0m|[0;1mb[0m|[0;1mk[0m|[0;1mr[0m|| 1
[32;1m[Board] [0m  -------------------
[32;1m[Board] [0m    a b c d e f g h
[32;1m[Board] [0m
[32;1m[Referee] [0mThis is the turn of the Black player...
[32;1m[Game] [0mPlayer's error code: 0
[32;1m[Game] [0mChecking move validity...
[32;1m[Board] [0mInitializing board...
[32;1m[Board] [0mLoading history file `championship/lizzie-iii-the-terminator/history.csv`...
[32;1m[Board] [0mLoaded 11 move(s).
[32;1m[Board] [0mLoading move file `championship/lizzie-iii-the-terminator/move.csv`...
[32;1m[Board] [0mBlack player is playing h7 to h5.
[32;1m[Board] [0m
[32;1m[Board] [0m    a b c d e f g h 
[32;1m[Board] [0m  -------------------
[32;1m[Board] [0m8 ||[30;1mr[0m|[30;1mk[0m|[0;1mQ[0m|[30;1mQ[0m|[30;1mK[0m|[30;1mb[0m|[30;1mk[0m|[30;1mr[0m|| 8
[32;1m[Board] [0m  -------------------
[32;1m[Board] [0m7 || |[7;1m [0m| |[7;1m [0m|[30;1mp[0m|[30;1mp[0m|[30;1mp[0m|[7;1m [0m|| 7
[32;1m[Board] [0m  -------------------
[32;1m[Board] [0m6 ||[30;1mp[0m| |[7;1m [0m|[30;1mp[0m|[7;1m [0m| |[7;1m [0m| || 6
[32;1m[Board] [0m  -------------------
[32;1m[Board] [0m5 || |[30;1mp[0m|[30;1mp[0m|[7;1m [0m|[0;1mp[0m|[7;1m [0m| |[30;1mp[0m|| 5
[32;1m[Board] [0m  -------------------
[32;1m[Board] [0m4 ||[7;1m [0m| |[7;1m [0m| |[7;1m [0m| |[7;1m [0m|[0;1mp[0m|| 4
[32;1m[Board] [0m  -------------------
[32;1m[Board] [0m3 || |[7;1m [0m| |[7;1m [0m| |[7;1m [0m|[0;1mp[0m|[7;1m [0m|| 3
[32;1m[Board] [0m  -------------------
[32;1m[Board] [0m2 ||[0;1mp[0m|[0;1mp[0m|[0;1mp[0m|[0;1mp[0m|[7;1m [0m|[0;1mp[0m|[7;1m [0m| || 2
[32;1m[Board] [0m  -------------------
[32;1m[Board] [0m1 ||[0;1mr[0m|[0;1mk[0m|[0;1mb[0m|[7;1m [0m|[0;1mK[0m|[0;1mb[0m|[0;1mk[0m|[0;1mr[0m|| 1
[32;1m[Board] [0m  -------------------
[32;1m[Board] [0m    a b c d e f g h
[32;1m[Board] [0m
[32;1m[Referee] [0mThis is the turn of the White player...
Input file: championship/lizzie-iii-the-terminator/history.csv
Output file: championship/lizzie-iii-the-terminator/move.csv
Turn of: white
Succesful move
e2e4
8 | R N B Q K B N R 
7 | P P P P P P P P 
6 | _ _ _ _ _ _ _ _ 
5 | _ _ _ _ _ _ _ _ 
4 | _ _ _ _ P _ _ _ 
3 | _ _ _ _ _ _ _ _ 
2 | P P P P _ P P P 
1 | R N B Q K B N R 
-------------------
  | A B C D E F G H 

Turn of: black
Succesful move
b7b5
8 | R N B Q K B N R 
7 | P _ P P P P P P 
6 | _ _ _ _ _ _ _ _ 
5 | _ P _ _ _ _ _ _ 
4 | _ _ _ _ P _ _ _ 
3 | _ _ _ _ _ _ _ _ 
2 | P P P P _ P P P 
1 | R N B Q K B N R 
-------------------
  | A B C D E F G H 

Turn of: white
Succesful move
g2g3
8 | R N B Q K B N R 
7 | P _ P P P P P P 
6 | _ _ _ _ _ _ _ _ 
5 | _ P _ _ _ _ _ _ 
4 | _ _ _ _ P _ _ _ 
3 | _ _ _ _ _ _ P _ 
2 | P P P P _ P _ P 
1 | R N B Q K B N R 
-------------------
  | A B C D E F G H 

Turn of: black
Succesful move
a7a6
8 | R N B Q K B N R 
7 | _ _ P P P P P P 
6 | P _ _ _ _ _ _ _ 
5 | _ P _ _ _ _ _ _ 
4 | _ _ _ _ P _ _ _ 
3 | _ _ _ _ _ _ P _ 
2 | P P P P _ P _ P 
1 | R N B Q K B N R 
-------------------
  | A B C D E F G H 

Turn of: white
Succesful move
h2h4
8 | R N B Q K B N R 
7 | _ _ P P P P P P 
6 | P _ _ _ _ _ _ _ 
5 | _ P _ _ _ _ _ _ 
4 | _ _ _ _ P _ _ P 
3 | _ _ _ _ _ _ P _ 
2 | P P P P _ P _ _ 
1 | R N B Q K B N R 
-------------------
  | A B C D E F G H 

Turn of: black
Succesful move
c7c6
8 | R N B Q K B N R 
7 | _ _ _ P P P P P 
6 | P _ P _ _ _ _ _ 
5 | _ P _ _ _ _ _ _ 
4 | _ _ _ _ P _ _ P 
3 | _ _ _ _ _ _ P _ 
2 | P P P P _ P _ _ 
1 | R N B Q K B N R 
-------------------
  | A B C D E F G H 

Turn of: white
Succesful move
e4e5
8 | R N B Q K B N R 
7 | _ _ _ P P P P P 
6 | P _ P _ _ _ _ _ 
5 | _ P _ _ P _ _ _ 
4 | _ _ _ _ _ _ _ P 
3 | _ _ _ _ _ _ P _ 
2 | P P P P _ P _ _ 
1 | R N B Q K B N R 
-------------------
  | A B C D E F G H 

Turn of: black
Succesful move
c6c5
8 | R N B Q K B N R 
7 | _ _ _ P P P P P 
6 | P _ _ _ _ _ _ _ 
5 | _ P P _ P _ _ _ 
4 | _ _ _ _ _ _ _ P 
3 | _ _ _ _ _ _ P _ 
2 | P P P P _ P _ _ 
1 | R N B Q K B N R 
-------------------
  | A B C D E F G H 

Turn of: white
Succesful move
d1g4
8 | R N B Q K B N R 
7 | _ _ _ P P P P P 
6 | P _ _ _ _ _ _ _ 
5 | _ P P _ P _ _ _ 
4 | _ _ _ _ _ _ Q P 
3 | _ _ _ _ _ _ P _ 
2 | P P P P _ P _ _ 
1 | R N B _ K B N R 
-------------------
  | A B C D E F G H 

Turn of: black
Succesful move
d7d6
8 | R N B Q K B N R 
7 | _ _ _ _ P P P P 
6 | P _ _ P _ _ _ _ 
5 | _ P P _ P _ _ _ 
4 | _ _ _ _ _ _ Q P 
3 | _ _ _ _ _ _ P _ 
2 | P P P P _ P _ _ 
1 | R N B _ K B N R 
-------------------
  | A B C D E F G H 

Turn of: white
Succesful move
g4c8
8 | R N Q Q K B N R 
7 | _ _ _ _ P P P P 
6 | P _ _ P _ _ _ _ 
5 | _ P P _ P _ _ _ 
4 | _ _ _ _ _ _ _ P 
3 | _ _ _ _ _ _ P _ 
2 | P P P P _ P _ _ 
1 | R N B _ K B N R 
-------------------
  | A B C D E F G H 

Turn of: black
Succesful move
h7h5
8 | R N Q Q K B N R 
7 | _ _ _ _ P P P _ 
6 | P _ _ P _ _ _ _ 
5 | _ P P _ P _ _ P 
4 | _ _ _ _ _ _ _ P 
3 | _ _ _ _ _ _ P _ 
2 | P P P P _ P _ _ 
1 | R N B _ K B N R 
-------------------
  | A B C D E F G H 

We are playing as White
Move history:
e2e4
b7b5
g2g3
a7a6
h2h4
c7c6
e4e5
c6c5
d1g4
d7d6
g4c8
h7h5
8 | R N Q Q K B N R 
7 | _ _ _ _ P P P _ 
6 | P _ _ P _ _ _ _ 
5 | _ P P _ P _ _ P 
4 | _ _ _ _ _ _ _ P 
3 | _ _ _ _ _ _ P _ 
2 | P P P P _ P _ _ 
1 | R N B _ K B N R 
-------------------
  | A B C D E F G H 

It is white's turn to play.
AI's move: e5e6
Move written: e5e6
[32;1m[Game] [0mPlayer's error code: 0
[32;1m[Game] [0mChecking move validity...
[32;1m[Board] [0mInitializing board...
[32;1m[Board] [0mLoading history file `championship/lizzie-iii-the-terminator/history.csv`...
[32;1m[Board] [0mLoaded 12 move(s).
[32;1m[Board] [0mLoading move file `championship/lizzie-iii-the-terminator/move.csv`...
[32;1m[Board] [0mWhite player is playing e5 to e6.
[32;1m[Board] [0m
[32;1m[Board] [0m    a b c d e f g h 
[32;1m[Board] [0m  -------------------
[32;1m[Board] [0m8 ||[30;1mr[0m|[30;1mk[0m|[0;1mQ[0m|[30;1mQ[0m|[30;1mK[0m|[30;1mb[0m|[30;1mk[0m|[30;1mr[0m|| 8
[32;1m[Board] [0m  -------------------
[32;1m[Board] [0m7 || |[7;1m [0m| |[7;1m [0m|[30;1mp[0m|[30;1mp[0m|[30;1mp[0m|[7;1m [0m|| 7
[32;1m[Board] [0m  -------------------
[32;1m[Board] [0m6 ||[30;1mp[0m| |[7;1m [0m|[30;1mp[0m|[0;1mp[0m| |[7;1m [0m| || 6
[32;1m[Board] [0m  -------------------
[32;1m[Board] [0m5 || |[30;1mp[0m|[30;1mp[0m|[7;1m [0m| |[7;1m [0m| |[30;1mp[0m|| 5
[32;1m[Board] [0m  -------------------
[32;1m[Board] [0m4 ||[7;1m [0m| |[7;1m [0m| |[7;1m [0m| |[7;1m [0m|[0;1mp[0m|| 4
[32;1m[Board] [0m  -------------------
[32;1m[Board] [0m3 || |[7;1m [0m| |[7;1m [0m| |[7;1m [0m|[0;1mp[0m|[7;1m [0m|| 3
[32;1m[Board] [0m  -------------------
[32;1m[Board] [0m2 ||[0;1mp[0m|[0;1mp[0m|[0;1mp[0m|[0;1mp[0m|[7;1m [0m|[0;1mp[0m|[7;1m [0m| || 2
[32;1m[Board] [0m  -------------------
[32;1m[Board] [0m1 ||[0;1mr[0m|[0;1mk[0m|[0;1mb[0m|[7;1m [0m|[0;1mK[0m|[0;1mb[0m|[0;1mk[0m|[0;1mr[0m|| 1
[32;1m[Board] [0m  -------------------
[32;1m[Board] [0m    a b c d e f g h
[32;1m[Board] [0m
[32;1m[Referee] [0mThis is the turn of the Black player...
[32;1m[Game] [0mPlayer's error code: 0
[32;1m[Game] [0mChecking move validity...
[32;1m[Board] [0mInitializing board...
[32;1m[Board] [0mLoading history file `championship/lizzie-iii-the-terminator/history.csv`...
[32;1m[Board] [0mLoaded 13 move(s).
[32;1m[Board] [0mLoading move file `championship/lizzie-iii-the-terminator/move.csv`...
[32;1m[Board] [0mBlack player is playing b8 to c6.
[32;1m[Board] [0m
[32;1m[Board] [0m    a b c d e f g h 
[32;1m[Board] [0m  -------------------
[32;1m[Board] [0m8 ||[30;1mr[0m| |[0;1mQ[0m|[30;1mQ[0m|[30;1mK[0m|[30;1mb[0m|[30;1mk[0m|[30;1mr[0m|| 8
[32;1m[Board] [0m  -------------------
[32;1m[Board] [0m7 || |[7;1m [0m| |[7;1m [0m|[30;1mp[0m|[30;1mp[0m|[30;1mp[0m|[7;1m [0m|| 7
[32;1m[Board] [0m  -------------------
[32;1m[Board] [0m6 ||[30;1mp[0m| |[30;1mk[0m|[30;1mp[0m|[0;1mp[0m| |[7;1m [0m| || 6
[32;1m[Board] [0m  -------------------
[32;1m[Board] [0m5 || |[30;1mp[0m|[30;1mp[0m|[7;1m [0m| |[7;1m [0m| |[30;1mp[0m|| 5
[32;1m[Board] [0m  -------------------
[32;1m[Board] [0m4 ||[7;1m [0m| |[7;1m [0m| |[7;1m [0m| |[7;1m [0m|[0;1mp[0m|| 4
[32;1m[Board] [0m  -------------------
[32;1m[Board] [0m3 || |[7;1m [0m| |[7;1m [0m| |[7;1m [0m|[0;1mp[0m|[7;1m [0m|| 3
[32;1m[Board] [0m  -------------------
[32;1m[Board] [0m2 ||[0;1mp[0m|[0;1mp[0m|[0;1mp[0m|[0;1mp[0m|[7;1m [0m|[0;1mp[0m|[7;1m [0m| || 2
[32;1m[Board] [0m  -------------------
[32;1m[Board] [0m1 ||[0;1mr[0m|[0;1mk[0m|[0;1mb[0m|[7;1m [0m|[0;1mK[0m|[0;1mb[0m|[0;1mk[0m|[0;1mr[0m|| 1
[32;1m[Board] [0m  -------------------
[32;1m[Board] [0m    a b c d e f g h
[32;1m[Board] [0m
[32;1m[Referee] [0mThis is the turn of the White player...
Input file: championship/lizzie-iii-the-terminator/history.csv
Output file: championship/lizzie-iii-the-terminator/move.csv
Turn of: white
Succesful move
e2e4
8 | R N B Q K B N R 
7 | P P P P P P P P 
6 | _ _ _ _ _ _ _ _ 
5 | _ _ _ _ _ _ _ _ 
4 | _ _ _ _ P _ _ _ 
3 | _ _ _ _ _ _ _ _ 
2 | P P P P _ P P P 
1 | R N B Q K B N R 
-------------------
  | A B C D E F G H 

Turn of: black
Succesful move
b7b5
8 | R N B Q K B N R 
7 | P _ P P P P P P 
6 | _ _ _ _ _ _ _ _ 
5 | _ P _ _ _ _ _ _ 
4 | _ _ _ _ P _ _ _ 
3 | _ _ _ _ _ _ _ _ 
2 | P P P P _ P P P 
1 | R N B Q K B N R 
-------------------
  | A B C D E F G H 

Turn of: white
Succesful move
g2g3
8 | R N B Q K B N R 
7 | P _ P P P P P P 
6 | _ _ _ _ _ _ _ _ 
5 | _ P _ _ _ _ _ _ 
4 | _ _ _ _ P _ _ _ 
3 | _ _ _ _ _ _ P _ 
2 | P P P P _ P _ P 
1 | R N B Q K B N R 
-------------------
  | A B C D E F G H 

Turn of: black
Succesful move
a7a6
8 | R N B Q K B N R 
7 | _ _ P P P P P P 
6 | P _ _ _ _ _ _ _ 
5 | _ P _ _ _ _ _ _ 
4 | _ _ _ _ P _ _ _ 
3 | _ _ _ _ _ _ P _ 
2 | P P P P _ P _ P 
1 | R N B Q K B N R 
-------------------
  | A B C D E F G H 

Turn of: white
Succesful move
h2h4
8 | R N B Q K B N R 
7 | _ _ P P P P P P 
6 | P _ _ _ _ _ _ _ 
5 | _ P _ _ _ _ _ _ 
4 | _ _ _ _ P _ _ P 
3 | _ _ _ _ _ _ P _ 
2 | P P P P _ P _ _ 
1 | R N B Q K B N R 
-------------------
  | A B C D E F G H 

Turn of: black
Succesful move
c7c6
8 | R N B Q K B N R 
7 | _ _ _ P P P P P 
6 | P _ P _ _ _ _ _ 
5 | _ P _ _ _ _ _ _ 
4 | _ _ _ _ P _ _ P 
3 | _ _ _ _ _ _ P _ 
2 | P P P P _ P _ _ 
1 | R N B Q K B N R 
-------------------
  | A B C D E F G H 

Turn of: white
Succesful move
e4e5
8 | R N B Q K B N R 
7 | _ _ _ P P P P P 
6 | P _ P _ _ _ _ _ 
5 | _ P _ _ P _ _ _ 
4 | _ _ _ _ _ _ _ P 
3 | _ _ _ _ _ _ P _ 
2 | P P P P _ P _ _ 
1 | R N B Q K B N R 
-------------------
  | A B C D E F G H 

Turn of: black
Succesful move
c6c5
8 | R N B Q K B N R 
7 | _ _ _ P P P P P 
6 | P _ _ _ _ _ _ _ 
5 | _ P P _ P _ _ _ 
4 | _ _ _ _ _ _ _ P 
3 | _ _ _ _ _ _ P _ 
2 | P P P P _ P _ _ 
1 | R N B Q K B N R 
-------------------
  | A B C D E F G H 

Turn of: white
Succesful move
d1g4
8 | R N B Q K B N R 
7 | _ _ _ P P P P P 
6 | P _ _ _ _ _ _ _ 
5 | _ P P _ P _ _ _ 
4 | _ _ _ _ _ _ Q P 
3 | _ _ _ _ _ _ P _ 
2 | P P P P _ P _ _ 
1 | R N B _ K B N R 
-------------------
  | A B C D E F G H 

Turn of: black
Succesful move
d7d6
8 | R N B Q K B N R 
7 | _ _ _ _ P P P P 
6 | P _ _ P _ _ _ _ 
5 | _ P P _ P _ _ _ 
4 | _ _ _ _ _ _ Q P 
3 | _ _ _ _ _ _ P _ 
2 | P P P P _ P _ _ 
1 | R N B _ K B N R 
-------------------
  | A B C D E F G H 

Turn of: white
Succesful move
g4c8
8 | R N Q Q K B N R 
7 | _ _ _ _ P P P P 
6 | P _ _ P _ _ _ _ 
5 | _ P P _ P _ _ _ 
4 | _ _ _ _ _ _ _ P 
3 | _ _ _ _ _ _ P _ 
2 | P P P P _ P _ _ 
1 | R N B _ K B N R 
-------------------
  | A B C D E F G H 

Turn of: black
Succesful move
h7h5
8 | R N Q Q K B N R 
7 | _ _ _ _ P P P _ 
6 | P _ _ P _ _ _ _ 
5 | _ P P _ P _ _ P 
4 | _ _ _ _ _ _ _ P 
3 | _ _ _ _ _ _ P _ 
2 | P P P P _ P _ _ 
1 | R N B _ K B N R 
-------------------
  | A B C D E F G H 

Turn of: white
Succesful move
e5e6
8 | R N Q Q K B N R 
7 | _ _ _ _ P P P _ 
6 | P _ _ P P _ _ _ 
5 | _ P P _ _ _ _ P 
4 | _ _ _ _ _ _ _ P 
3 | _ _ _ _ _ _ P _ 
2 | P P P P _ P _ _ 
1 | R N B _ K B N R 
-------------------
  | A B C D E F G H 

Turn of: black
Succesful move
b8c6
8 | R _ Q Q K B N R 
7 | _ _ _ _ P P P _ 
6 | P _ N P P _ _ _ 
5 | _ P P _ _ _ _ P 
4 | _ _ _ _ _ _ _ P 
3 | _ _ _ _ _ _ P _ 
2 | P P P P _ P _ _ 
1 | R N B _ K B N R 
-------------------
  | A B C D E F G H 

We are playing as White
Move history:
e2e4
b7b5
g2g3
a7a6
h2h4
c7c6
e4e5
c6c5
d1g4
d7d6
g4c8
h7h5
e5e6
b8c6
8 | R _ Q Q K B N R 
7 | _ _ _ _ P P P _ 
6 | P _ N P P _ _ _ 
5 | _ P P _ _ _ _ P 
4 | _ _ _ _ _ _ _ P 
3 | _ _ _ _ _ _ P _ 
2 | P P P P _ P _ _ 
1 | R N B _ K B N R 
-------------------
  | A B C D E F G H 

It is white's turn to play.
AI's move: f1h3
Move written: f1h3
[32;1m[Game] [0mPlayer's error code: 0
[32;1m[Game] [0mChecking move validity...
[32;1m[Board] [0mInitializing board...
[32;1m[Board] [0mLoading history file `championship/lizzie-iii-the-terminator/history.csv`...
[32;1m[Board] [0mLoaded 14 move(s).
[32;1m[Board] [0mLoading move file `championship/lizzie-iii-the-terminator/move.csv`...
[32;1m[Board] [0mWhite player is playing f1 to h3.
[32;1m[Board] [0m
[32;1m[Board] [0m    a b c d e f g h 
[32;1m[Board] [0m  -------------------
[32;1m[Board] [0m8 ||[30;1mr[0m| |[0;1mQ[0m|[30;1mQ[0m|[30;1mK[0m|[30;1mb[0m|[30;1mk[0m|[30;1mr[0m|| 8
[32;1m[Board] [0m  -------------------
[32;1m[Board] [0m7 || |[7;1m [0m| |[7;1m [0m|[30;1mp[0m|[30;1mp[0m|[30;1mp[0m|[7;1m [0m|| 7
[32;1m[Board] [0m  -------------------
[32;1m[Board] [0m6 ||[30;1mp[0m| |[30;1mk[0m|[30;1mp[0m|[0;1mp[0m| |[7;1m [0m| || 6
[32;1m[Board] [0m  -------------------
[32;1m[Board] [0m5 || |[30;1mp[0m|[30;1mp[0m|[7;1m [0m| |[7;1m [0m| |[30;1mp[0m|| 5
[32;1m[Board] [0m  -------------------
[32;1m[Board] [0m4 ||[7;1m [0m| |[7;1m [0m| |[7;1m [0m| |[7;1m [0m|[0;1mp[0m|| 4
[32;1m[Board] [0m  -------------------
[32;1m[Board] [0m3 || |[7;1m [0m| |[7;1m [0m| |[7;1m [0m|[0;1mp[0m|[0;1mb[0m|| 3
[32;1m[Board] [0m  -------------------
[32;1m[Board] [0m2 ||[0;1mp[0m|[0;1mp[0m|[0;1mp[0m|[0;1mp[0m|[7;1m [0m|[0;1mp[0m|[7;1m [0m| || 2
[32;1m[Board] [0m  -------------------
[32;1m[Board] [0m1 ||[0;1mr[0m|[0;1mk[0m|[0;1mb[0m|[7;1m [0m|[0;1mK[0m|[7;1m [0m|[0;1mk[0m|[0;1mr[0m|| 1
[32;1m[Board] [0m  -------------------
[32;1m[Board] [0m    a b c d e f g h
[32;1m[Board] [0m
[32;1m[Referee] [0mThis is the turn of the Black player...
[32;1m[Game] [0mPlayer's error code: 0
[32;1m[Game] [0mChecking move validity...
[32;1m[Board] [0mInitializing board...
[32;1m[Board] [0mLoading history file `championship/lizzie-iii-the-terminator/history.csv`...
[32;1m[Board] [0mLoaded 15 move(s).
[32;1m[Board] [0mLoading move file `championship/lizzie-iii-the-terminator/move.csv`...
[32;1m[Board] [0mBlack player is playing c6 to a5.
[32;1m[Board] [0m
[32;1m[Board] [0m    a b c d e f g h 
[32;1m[Board] [0m  -------------------
[32;1m[Board] [0m8 ||[30;1mr[0m| |[0;1mQ[0m|[30;1mQ[0m|[30;1mK[0m|[30;1mb[0m|[30;1mk[0m|[30;1mr[0m|| 8
[32;1m[Board] [0m  -------------------
[32;1m[Board] [0m7 || |[7;1m [0m| |[7;1m [0m|[30;1mp[0m|[30;1mp[0m|[30;1mp[0m|[7;1m [0m|| 7
[32;1m[Board] [0m  -------------------
[32;1m[Board] [0m6 ||[30;1mp[0m| |[7;1m [0m|[30;1mp[0m|[0;1mp[0m| |[7;1m [0m| || 6
[32;1m[Board] [0m  -------------------
[32;1m[Board] [0m5 ||[30;1mk[0m|[30;1mp[0m|[30;1mp[0m|[7;1m [0m| |[7;1m [0m| |[30;1mp[0m|| 5
[32;1m[Board] [0m  -------------------
[32;1m[Board] [0m4 ||[7;1m [0m| |[7;1m [0m| |[7;1m [0m| |[7;1m [0m|[0;1mp[0m|| 4
[32;1m[Board] [0m  -------------------
[32;1m[Board] [0m3 || |[7;1m [0m| |[7;1m [0m| |[7;1m [0m|[0;1mp[0m|[0;1mb[0m|| 3
[32;1m[Board] [0m  -------------------
[32;1m[Board] [0m2 ||[0;1mp[0m|[0;1mp[0m|[0;1mp[0m|[0;1mp[0m|[7;1m [0m|[0;1mp[0m|[7;1m [0m| || 2
[32;1m[Board] [0m  -------------------
[32;1m[Board] [0m1 ||[0;1mr[0m|[0;1mk[0m|[0;1mb[0m|[7;1m [0m|[0;1mK[0m|[7;1m [0m|[0;1mk[0m|[0;1mr[0m|| 1
[32;1m[Board] [0m  -------------------
[32;1m[Board] [0m    a b c d e f g h
[32;1m[Board] [0m
[32;1m[Referee] [0mThis is the turn of the White player...
Input file: championship/lizzie-iii-the-terminator/history.csv
Output file: championship/lizzie-iii-the-terminator/move.csv
Turn of: white
Succesful move
e2e4
8 | R N B Q K B N R 
7 | P P P P P P P P 
6 | _ _ _ _ _ _ _ _ 
5 | _ _ _ _ _ _ _ _ 
4 | _ _ _ _ P _ _ _ 
3 | _ _ _ _ _ _ _ _ 
2 | P P P P _ P P P 
1 | R N B Q K B N R 
-------------------
  | A B C D E F G H 

Turn of: black
Succesful move
b7b5
8 | R N B Q K B N R 
7 | P _ P P P P P P 
6 | _ _ _ _ _ _ _ _ 
5 | _ P _ _ _ _ _ _ 
4 | _ _ _ _ P _ _ _ 
3 | _ _ _ _ _ _ _ _ 
2 | P P P P _ P P P 
1 | R N B Q K B N R 
-------------------
  | A B C D E F G H 

Turn of: white
Succesful move
g2g3
8 | R N B Q K B N R 
7 | P _ P P P P P P 
6 | _ _ _ _ _ _ _ _ 
5 | _ P _ _ _ _ _ _ 
4 | _ _ _ _ P _ _ _ 
3 | _ _ _ _ _ _ P _ 
2 | P P P P _ P _ P 
1 | R N B Q K B N R 
-------------------
  | A B C D E F G H 

Turn of: black
Succesful move
a7a6
8 | R N B Q K B N R 
7 | _ _ P P P P P P 
6 | P _ _ _ _ _ _ _ 
5 | _ P _ _ _ _ _ _ 
4 | _ _ _ _ P _ _ _ 
3 | _ _ _ _ _ _ P _ 
2 | P P P P _ P _ P 
1 | R N B Q K B N R 
-------------------
  | A B C D E F G H 

Turn of: white
Succesful move
h2h4
8 | R N B Q K B N R 
7 | _ _ P P P P P P 
6 | P _ _ _ _ _ _ _ 
5 | _ P _ _ _ _ _ _ 
4 | _ _ _ _ P _ _ P 
3 | _ _ _ _ _ _ P _ 
2 | P P P P _ P _ _ 
1 | R N B Q K B N R 
-------------------
  | A B C D E F G H 

Turn of: black
Succesful move
c7c6
8 | R N B Q K B N R 
7 | _ _ _ P P P P P 
6 | P _ P _ _ _ _ _ 
5 | _ P _ _ _ _ _ _ 
4 | _ _ _ _ P _ _ P 
3 | _ _ _ _ _ _ P _ 
2 | P P P P _ P _ _ 
1 | R N B Q K B N R 
-------------------
  | A B C D E F G H 

Turn of: white
Succesful move
e4e5
8 | R N B Q K B N R 
7 | _ _ _ P P P P P 
6 | P _ P _ _ _ _ _ 
5 | _ P _ _ P _ _ _ 
4 | _ _ _ _ _ _ _ P 
3 | _ _ _ _ _ _ P _ 
2 | P P P P _ P _ _ 
1 | R N B Q K B N R 
-------------------
  | A B C D E F G H 

Turn of: black
Succesful move
c6c5
8 | R N B Q K B N R 
7 | _ _ _ P P P P P 
6 | P _ _ _ _ _ _ _ 
5 | _ P P _ P _ _ _ 
4 | _ _ _ _ _ _ _ P 
3 | _ _ _ _ _ _ P _ 
2 | P P P P _ P _ _ 
1 | R N B Q K B N R 
-------------------
  | A B C D E F G H 

Turn of: white
Succesful move
d1g4
8 | R N B Q K B N R 
7 | _ _ _ P P P P P 
6 | P _ _ _ _ _ _ _ 
5 | _ P P _ P _ _ _ 
4 | _ _ _ _ _ _ Q P 
3 | _ _ _ _ _ _ P _ 
2 | P P P P _ P _ _ 
1 | R N B _ K B N R 
-------------------
  | A B C D E F G H 

Turn of: black
Succesful move
d7d6
8 | R N B Q K B N R 
7 | _ _ _ _ P P P P 
6 | P _ _ P _ _ _ _ 
5 | _ P P _ P _ _ _ 
4 | _ _ _ _ _ _ Q P 
3 | _ _ _ _ _ _ P _ 
2 | P P P P _ P _ _ 
1 | R N B _ K B N R 
-------------------
  | A B C D E F G H 

Turn of: white
Succesful move
g4c8
8 | R N Q Q K B N R 
7 | _ _ _ _ P P P P 
6 | P _ _ P _ _ _ _ 
5 | _ P P _ P _ _ _ 
4 | _ _ _ _ _ _ _ P 
3 | _ _ _ _ _ _ P _ 
2 | P P P P _ P _ _ 
1 | R N B _ K B N R 
-------------------
  | A B C D E F G H 

Turn of: black
Succesful move
h7h5
8 | R N Q Q K B N R 
7 | _ _ _ _ P P P _ 
6 | P _ _ P _ _ _ _ 
5 | _ P P _ P _ _ P 
4 | _ _ _ _ _ _ _ P 
3 | _ _ _ _ _ _ P _ 
2 | P P P P _ P _ _ 
1 | R N B _ K B N R 
-------------------
  | A B C D E F G H 

Turn of: white
Succesful move
e5e6
8 | R N Q Q K B N R 
7 | _ _ _ _ P P P _ 
6 | P _ _ P P _ _ _ 
5 | _ P P _ _ _ _ P 
4 | _ _ _ _ _ _ _ P 
3 | _ _ _ _ _ _ P _ 
2 | P P P P _ P _ _ 
1 | R N B _ K B N R 
-------------------
  | A B C D E F G H 

Turn of: black
Succesful move
b8c6
8 | R _ Q Q K B N R 
7 | _ _ _ _ P P P _ 
6 | P _ N P P _ _ _ 
5 | _ P P _ _ _ _ P 
4 | _ _ _ _ _ _ _ P 
3 | _ _ _ _ _ _ P _ 
2 | P P P P _ P _ _ 
1 | R N B _ K B N R 
-------------------
  | A B C D E F G H 

Turn of: white
Succesful move
f1h3
8 | R _ Q Q K B N R 
7 | _ _ _ _ P P P _ 
6 | P _ N P P _ _ _ 
5 | _ P P _ _ _ _ P 
4 | _ _ _ _ _ _ _ P 
3 | _ _ _ _ _ _ P B 
2 | P P P P _ P _ _ 
1 | R N B _ K _ N R 
-------------------
  | A B C D E F G H 

Turn of: black
Succesful move
c6a5
8 | R _ Q Q K B N R 
7 | _ _ _ _ P P P _ 
6 | P _ _ P P _ _ _ 
5 | N P P _ _ _ _ P 
4 | _ _ _ _ _ _ _ P 
3 | _ _ _ _ _ _ P B 
2 | P P P P _ P _ _ 
1 | R N B _ K _ N R 
-------------------
  | A B C D E F G H 

We are playing as White
Move history:
e2e4
b7b5
g2g3
a7a6
h2h4
c7c6
e4e5
c6c5
d1g4
d7d6
g4c8
h7h5
e5e6
b8c6
f1h3
c6a5
8 | R _ Q Q K B N R 
7 | _ _ _ _ P P P _ 
6 | P _ _ P P _ _ _ 
5 | N P P _ _ _ _ P 
4 | _ _ _ _ _ _ _ P 
3 | _ _ _ _ _ _ P B 
2 | P P P P _ P _ _ 
1 | R N B _ K _ N R 
-------------------
  | A B C D E F G H 

It is white's turn to play.
AI's move: c2c3
Move written: c2c3
[32;1m[Game] [0mPlayer's error code: 0
[32;1m[Game] [0mChecking move validity...
[32;1m[Board] [0mInitializing board...
[32;1m[Board] [0mLoading history file `championship/lizzie-iii-the-terminator/history.csv`...
[32;1m[Board] [0mLoaded 16 move(s).
[32;1m[Board] [0mLoading move file `championship/lizzie-iii-the-terminator/move.csv`...
[32;1m[Board] [0mWhite player is playing c2 to c3.
[32;1m[Board] [0m
[32;1m[Board] [0m    a b c d e f g h 
[32;1m[Board] [0m  -------------------
[32;1m[Board] [0m8 ||[30;1mr[0m| |[0;1mQ[0m|[30;1mQ[0m|[30;1mK[0m|[30;1mb[0m|[30;1mk[0m|[30;1mr[0m|| 8
[32;1m[Board] [0m  -------------------
[32;1m[Board] [0m7 || |[7;1m [0m| |[7;1m [0m|[30;1mp[0m|[30;1mp[0m|[30;1mp[0m|[7;1m [0m|| 7
[32;1m[Board] [0m  -------------------
[32;1m[Board] [0m6 ||[30;1mp[0m| |[7;1m [0m|[30;1mp[0m|[0;1mp[0m| |[7;1m [0m| || 6
[32;1m[Board] [0m  -------------------
[32;1m[Board] [0m5 ||[30;1mk[0m|[30;1mp[0m|[30;1mp[0m|[7;1m [0m| |[7;1m [0m| |[30;1mp[0m|| 5
[32;1m[Board] [0m  -------------------
[32;1m[Board] [0m4 ||[7;1m [0m| |[7;1m [0m| |[7;1m [0m| |[7;1m [0m|[0;1mp[0m|| 4
[32;1m[Board] [0m  -------------------
[32;1m[Board] [0m3 || |[7;1m [0m|[0;1mp[0m|[7;1m [0m| |[7;1m [0m|[0;1mp[0m|[0;1mb[0m|| 3
[32;1m[Board] [0m  -------------------
[32;1m[Board] [0m2 ||[0;1mp[0m|[0;1mp[0m|[7;1m [0m|[0;1mp[0m|[7;1m [0m|[0;1mp[0m|[7;1m [0m| || 2
[32;1m[Board] [0m  -------------------
[32;1m[Board] [0m1 ||[0;1mr[0m|[0;1mk[0m|[0;1mb[0m|[7;1m [0m|[0;1mK[0m|[7;1m [0m|[0;1mk[0m|[0;1mr[0m|| 1
[32;1m[Board] [0m  -------------------
[32;1m[Board] [0m    a b c d e f g h
[32;1m[Board] [0m
[32;1m[Referee] [0mThis is the turn of the Black player...
[32;1m[Game] [0mPlayer's error code: 0
[32;1m[Game] [0mChecking move validity...
[32;1m[Board] [0mInitializing board...
[32;1m[Board] [0mLoading history file `championship/lizzie-iii-the-terminator/history.csv`...
[32;1m[Board] [0mLoaded 17 move(s).
[32;1m[Board] [0mLoading move file `championship/lizzie-iii-the-terminator/move.csv`...
[32;1m[Board] [0mBlack player is playing f7 to f6.
[32;1m[Board] [0m
[32;1m[Board] [0m    a b c d e f g h 
[32;1m[Board] [0m  -------------------
[32;1m[Board] [0m8 ||[30;1mr[0m| |[0;1mQ[0m|[30;1mQ[0m|[30;1mK[0m|[30;1mb[0m|[30;1mk[0m|[30;1mr[0m|| 8
[32;1m[Board] [0m  -------------------
[32;1m[Board] [0m7 || |[7;1m [0m| |[7;1m [0m|[30;1mp[0m|[7;1m [0m|[30;1mp[0m|[7;1m [0m|| 7
[32;1m[Board] [0m  -------------------
[32;1m[Board] [0m6 ||[30;1mp[0m| |[7;1m [0m|[30;1mp[0m|[0;1mp[0m|[30;1mp[0m|[7;1m [0m| || 6
[32;1m[Board] [0m  -------------------
[32;1m[Board] [0m5 ||[30;1mk[0m|[30;1mp[0m|[30;1mp[0m|[7;1m [0m| |[7;1m [0m| |[30;1mp[0m|| 5
[32;1m[Board] [0m  -------------------
[32;1m[Board] [0m4 ||[7;1m [0m| |[7;1m [0m| |[7;1m [0m| |[7;1m [0m|[0;1mp[0m|| 4
[32;1m[Board] [0m  -------------------
[32;1m[Board] [0m3 || |[7;1m [0m|[0;1mp[0m|[7;1m [0m| |[7;1m [0m|[0;1mp[0m|[0;1mb[0m|| 3
[32;1m[Board] [0m  -------------------
[32;1m[Board] [0m2 ||[0;1mp[0m|[0;1mp[0m|[7;1m [0m|[0;1mp[0m|[7;1m [0m|[0;1mp[0m|[7;1m [0m| || 2
[32;1m[Board] [0m  -------------------
[32;1m[Board] [0m1 ||[0;1mr[0m|[0;1mk[0m|[0;1mb[0m|[7;1m [0m|[0;1mK[0m|[7;1m [0m|[0;1mk[0m|[0;1mr[0m|| 1
[32;1m[Board] [0m  -------------------
[32;1m[Board] [0m    a b c d e f g h
[32;1m[Board] [0m
[32;1m[Referee] [0mThis is the turn of the White player...
Input file: championship/lizzie-iii-the-terminator/history.csv
Output file: championship/lizzie-iii-the-terminator/move.csv
Turn of: white
Succesful move
e2e4
8 | R N B Q K B N R 
7 | P P P P P P P P 
6 | _ _ _ _ _ _ _ _ 
5 | _ _ _ _ _ _ _ _ 
4 | _ _ _ _ P _ _ _ 
3 | _ _ _ _ _ _ _ _ 
2 | P P P P _ P P P 
1 | R N B Q K B N R 
-------------------
  | A B C D E F G H 

Turn of: black
Succesful move
b7b5
8 | R N B Q K B N R 
7 | P _ P P P P P P 
6 | _ _ _ _ _ _ _ _ 
5 | _ P _ _ _ _ _ _ 
4 | _ _ _ _ P _ _ _ 
3 | _ _ _ _ _ _ _ _ 
2 | P P P P _ P P P 
1 | R N B Q K B N R 
-------------------
  | A B C D E F G H 

Turn of: white
Succesful move
g2g3
8 | R N B Q K B N R 
7 | P _ P P P P P P 
6 | _ _ _ _ _ _ _ _ 
5 | _ P _ _ _ _ _ _ 
4 | _ _ _ _ P _ _ _ 
3 | _ _ _ _ _ _ P _ 
2 | P P P P _ P _ P 
1 | R N B Q K B N R 
-------------------
  | A B C D E F G H 

Turn of: black
Succesful move
a7a6
8 | R N B Q K B N R 
7 | _ _ P P P P P P 
6 | P _ _ _ _ _ _ _ 
5 | _ P _ _ _ _ _ _ 
4 | _ _ _ _ P _ _ _ 
3 | _ _ _ _ _ _ P _ 
2 | P P P P _ P _ P 
1 | R N B Q K B N R 
-------------------
  | A B C D E F G H 

Turn of: white
Succesful move
h2h4
8 | R N B Q K B N R 
7 | _ _ P P P P P P 
6 | P _ _ _ _ _ _ _ 
5 | _ P _ _ _ _ _ _ 
4 | _ _ _ _ P _ _ P 
3 | _ _ _ _ _ _ P _ 
2 | P P P P _ P _ _ 
1 | R N B Q K B N R 
-------------------
  | A B C D E F G H 

Turn of: black
Succesful move
c7c6
8 | R N B Q K B N R 
7 | _ _ _ P P P P P 
6 | P _ P _ _ _ _ _ 
5 | _ P _ _ _ _ _ _ 
4 | _ _ _ _ P _ _ P 
3 | _ _ _ _ _ _ P _ 
2 | P P P P _ P _ _ 
1 | R N B Q K B N R 
-------------------
  | A B C D E F G H 

Turn of: white
Succesful move
e4e5
8 | R N B Q K B N R 
7 | _ _ _ P P P P P 
6 | P _ P _ _ _ _ _ 
5 | _ P _ _ P _ _ _ 
4 | _ _ _ _ _ _ _ P 
3 | _ _ _ _ _ _ P _ 
2 | P P P P _ P _ _ 
1 | R N B Q K B N R 
-------------------
  | A B C D E F G H 

Turn of: black
Succesful move
c6c5
8 | R N B Q K B N R 
7 | _ _ _ P P P P P 
6 | P _ _ _ _ _ _ _ 
5 | _ P P _ P _ _ _ 
4 | _ _ _ _ _ _ _ P 
3 | _ _ _ _ _ _ P _ 
2 | P P P P _ P _ _ 
1 | R N B Q K B N R 
-------------------
  | A B C D E F G H 

Turn of: white
Succesful move
d1g4
8 | R N B Q K B N R 
7 | _ _ _ P P P P P 
6 | P _ _ _ _ _ _ _ 
5 | _ P P _ P _ _ _ 
4 | _ _ _ _ _ _ Q P 
3 | _ _ _ _ _ _ P _ 
2 | P P P P _ P _ _ 
1 | R N B _ K B N R 
-------------------
  | A B C D E F G H 

Turn of: black
Succesful move
d7d6
8 | R N B Q K B N R 
7 | _ _ _ _ P P P P 
6 | P _ _ P _ _ _ _ 
5 | _ P P _ P _ _ _ 
4 | _ _ _ _ _ _ Q P 
3 | _ _ _ _ _ _ P _ 
2 | P P P P _ P _ _ 
1 | R N B _ K B N R 
-------------------
  | A B C D E F G H 

Turn of: white
Succesful move
g4c8
8 | R N Q Q K B N R 
7 | _ _ _ _ P P P P 
6 | P _ _ P _ _ _ _ 
5 | _ P P _ P _ _ _ 
4 | _ _ _ _ _ _ _ P 
3 | _ _ _ _ _ _ P _ 
2 | P P P P _ P _ _ 
1 | R N B _ K B N R 
-------------------
  | A B C D E F G H 

Turn of: black
Succesful move
h7h5
8 | R N Q Q K B N R 
7 | _ _ _ _ P P P _ 
6 | P _ _ P _ _ _ _ 
5 | _ P P _ P _ _ P 
4 | _ _ _ _ _ _ _ P 
3 | _ _ _ _ _ _ P _ 
2 | P P P P _ P _ _ 
1 | R N B _ K B N R 
-------------------
  | A B C D E F G H 

Turn of: white
Succesful move
e5e6
8 | R N Q Q K B N R 
7 | _ _ _ _ P P P _ 
6 | P _ _ P P _ _ _ 
5 | _ P P _ _ _ _ P 
4 | _ _ _ _ _ _ _ P 
3 | _ _ _ _ _ _ P _ 
2 | P P P P _ P _ _ 
1 | R N B _ K B N R 
-------------------
  | A B C D E F G H 

Turn of: black
Succesful move
b8c6
8 | R _ Q Q K B N R 
7 | _ _ _ _ P P P _ 
6 | P _ N P P _ _ _ 
5 | _ P P _ _ _ _ P 
4 | _ _ _ _ _ _ _ P 
3 | _ _ _ _ _ _ P _ 
2 | P P P P _ P _ _ 
1 | R N B _ K B N R 
-------------------
  | A B C D E F G H 

Turn of: white
Succesful move
f1h3
8 | R _ Q Q K B N R 
7 | _ _ _ _ P P P _ 
6 | P _ N P P _ _ _ 
5 | _ P P _ _ _ _ P 
4 | _ _ _ _ _ _ _ P 
3 | _ _ _ _ _ _ P B 
2 | P P P P _ P _ _ 
1 | R N B _ K _ N R 
-------------------
  | A B C D E F G H 

Turn of: black
Succesful move
c6a5
8 | R _ Q Q K B N R 
7 | _ _ _ _ P P P _ 
6 | P _ _ P P _ _ _ 
5 | N P P _ _ _ _ P 
4 | _ _ _ _ _ _ _ P 
3 | _ _ _ _ _ _ P B 
2 | P P P P _ P _ _ 
1 | R N B _ K _ N R 
-------------------
  | A B C D E F G H 

Turn of: white
Succesful move
c2c3
8 | R _ Q Q K B N R 
7 | _ _ _ _ P P P _ 
6 | P _ _ P P _ _ _ 
5 | N P P _ _ _ _ P 
4 | _ _ _ _ _ _ _ P 
3 | _ _ P _ _ _ P B 
2 | P P _ P _ P _ _ 
1 | R N B _ K _ N R 
-------------------
  | A B C D E F G H 

Turn of: black
Succesful move
f7f6
8 | R _ Q Q K B N R 
7 | _ _ _ _ P _ P _ 
6 | P _ _ P P P _ _ 
5 | N P P _ _ _ _ P 
4 | _ _ _ _ _ _ _ P 
3 | _ _ P _ _ _ P B 
2 | P P _ P _ P _ _ 
1 | R N B _ K _ N R 
-------------------
  | A B C D E F G H 

We are playing as White
Move history:
e2e4
b7b5
g2g3
a7a6
h2h4
c7c6
e4e5
c6c5
d1g4
d7d6
g4c8
h7h5
e5e6
b8c6
f1h3
c6a5
c2c3
f7f6
8 | R _ Q Q K B N R 
7 | _ _ _ _ P _ P _ 
6 | P _ _ P P P _ _ 
5 | N P P _ _ _ _ P 
4 | _ _ _ _ _ _ _ P 
3 | _ _ P _ _ _ P B 
2 | P P _ P _ P _ _ 
1 | R N B _ K _ N R 
-------------------
  | A B C D E F G H 

It is white's turn to play.
AI's move: c3c4
Move written: c3c4
[32;1m[Game] [0mPlayer's error code: 0
[32;1m[Game] [0mChecking move validity...
[32;1m[Board] [0mInitializing board...
[32;1m[Board] [0mLoading history file `championship/lizzie-iii-the-terminator/history.csv`...
[32;1m[Board] [0mLoaded 18 move(s).
[32;1m[Board] [0mLoading move file `championship/lizzie-iii-the-terminator/move.csv`...
[32;1m[Board] [0mWhite player is playing c3 to c4.
[32;1m[Board] [0m
[32;1m[Board] [0m    a b c d e f g h 
[32;1m[Board] [0m  -------------------
[32;1m[Board] [0m8 ||[30;1mr[0m| |[0;1mQ[0m|[30;1mQ[0m|[30;1mK[0m|[30;1mb[0m|[30;1mk[0m|[30;1mr[0m|| 8
[32;1m[Board] [0m  -------------------
[32;1m[Board] [0m7 || |[7;1m [0m| |[7;1m [0m|[30;1mp[0m|[7;1m [0m|[30;1mp[0m|[7;1m [0m|| 7
[32;1m[Board] [0m  -------------------
[32;1m[Board] [0m6 ||[30;1mp[0m| |[7;1m [0m|[30;1mp[0m|[0;1mp[0m|[30;1mp[0m|[7;1m [0m| || 6
[32;1m[Board] [0m  -------------------
[32;1m[Board] [0m5 ||[30;1mk[0m|[30;1mp[0m|[30;1mp[0m|[7;1m [0m| |[7;1m [0m| |[30;1mp[0m|| 5
[32;1m[Board] [0m  -------------------
[32;1m[Board] [0m4 ||[7;1m [0m| |[0;1mp[0m| |[7;1m [0m| |[7;1m [0m|[0;1mp[0m|| 4
[32;1m[Board] [0m  -------------------
[32;1m[Board] [0m3 || |[7;1m [0m| |[7;1m [0m| |[7;1m [0m|[0;1mp[0m|[0;1mb[0m|| 3
[32;1m[Board] [0m  -------------------
[32;1m[Board] [0m2 ||[0;1mp[0m|[0;1mp[0m|[7;1m [0m|[0;1mp[0m|[7;1m [0m|[0;1mp[0m|[7;1m [0m| || 2
[32;1m[Board] [0m  -------------------
[32;1m[Board] [0m1 ||[0;1mr[0m|[0;1mk[0m|[0;1mb[0m|[7;1m [0m|[0;1mK[0m|[7;1m [0m|[0;1mk[0m|[0;1mr[0m|| 1
[32;1m[Board] [0m  -------------------
[32;1m[Board] [0m    a b c d e f g h
[32;1m[Board] [0m
[32;1m[Referee] [0mThis is the turn of the Black player...
[32;1m[Game] [0mPlayer's error code: 0
[32;1m[Game] [0mChecking move validity...
[32;1m[Board] [0mInitializing board...
[32;1m[Board] [0mLoading history file `championship/lizzie-iii-the-terminator/history.csv`...
[32;1m[Board] [0mLoaded 19 move(s).
[32;1m[Board] [0mLoading move file `championship/lizzie-iii-the-terminator/move.csv`...
[32;1m[Board] [0mBlack player is playing a8 to a7.
[32;1m[Board] [0m
[32;1m[Board] [0m    a b c d e f g h 
[32;1m[Board] [0m  -------------------
[32;1m[Board] [0m8 ||[7;1m [0m| |[0;1mQ[0m|[30;1mQ[0m|[30;1mK[0m|[30;1mb[0m|[30;1mk[0m|[30;1mr[0m|| 8
[32;1m[Board] [0m  -------------------
[32;1m[Board] [0m7 ||[30;1mr[0m|[7;1m [0m| |[7;1m [0m|[30;1mp[0m|[7;1m [0m|[30;1mp[0m|[7;1m [0m|| 7
[32;1m[Board] [0m  -------------------
[32;1m[Board] [0m6 ||[30;1mp[0m| |[7;1m [0m|[30;1mp[0m|[0;1mp[0m|[30;1mp[0m|[7;1m [0m| || 6
[32;1m[Board] [0m  -------------------
[32;1m[Board] [0m5 ||[30;1mk[0m|[30;1mp[0m|[30;1mp[0m|[7;1m [0m| |[7;1m [0m| |[30;1mp[0m|| 5
[32;1m[Board] [0m  -------------------
[32;1m[Board] [0m4 ||[7;1m [0m| |[0;1mp[0m| |[7;1m [0m| |[7;1m [0m|[0;1mp[0m|| 4
[32;1m[Board] [0m  -------------------
[32;1m[Board] [0m3 || |[7;1m [0m| |[7;1m [0m| |[7;1m [0m|[0;1mp[0m|[0;1mb[0m|| 3
[32;1m[Board] [0m  -------------------
[32;1m[Board] [0m2 ||[0;1mp[0m|[0;1mp[0m|[7;1m [0m|[0;1mp[0m|[7;1m [0m|[0;1mp[0m|[7;1m [0m| || 2
[32;1m[Board] [0m  -------------------
[32;1m[Board] [0m1 ||[0;1mr[0m|[0;1mk[0m|[0;1mb[0m|[7;1m [0m|[0;1mK[0m|[7;1m [0m|[0;1mk[0m|[0;1mr[0m|| 1
[32;1m[Board] [0m  -------------------
[32;1m[Board] [0m    a b c d e f g h
[32;1m[Board] [0m
[32;1m[Referee] [0mThis is the turn of the White player...
Input file: championship/lizzie-iii-the-terminator/history.csv
Output file: championship/lizzie-iii-the-terminator/move.csv
Turn of: white
Succesful move
e2e4
8 | R N B Q K B N R 
7 | P P P P P P P P 
6 | _ _ _ _ _ _ _ _ 
5 | _ _ _ _ _ _ _ _ 
4 | _ _ _ _ P _ _ _ 
3 | _ _ _ _ _ _ _ _ 
2 | P P P P _ P P P 
1 | R N B Q K B N R 
-------------------
  | A B C D E F G H 

Turn of: black
Succesful move
b7b5
8 | R N B Q K B N R 
7 | P _ P P P P P P 
6 | _ _ _ _ _ _ _ _ 
5 | _ P _ _ _ _ _ _ 
4 | _ _ _ _ P _ _ _ 
3 | _ _ _ _ _ _ _ _ 
2 | P P P P _ P P P 
1 | R N B Q K B N R 
-------------------
  | A B C D E F G H 

Turn of: white
Succesful move
g2g3
8 | R N B Q K B N R 
7 | P _ P P P P P P 
6 | _ _ _ _ _ _ _ _ 
5 | _ P _ _ _ _ _ _ 
4 | _ _ _ _ P _ _ _ 
3 | _ _ _ _ _ _ P _ 
2 | P P P P _ P _ P 
1 | R N B Q K B N R 
-------------------
  | A B C D E F G H 

Turn of: black
Succesful move
a7a6
8 | R N B Q K B N R 
7 | _ _ P P P P P P 
6 | P _ _ _ _ _ _ _ 
5 | _ P _ _ _ _ _ _ 
4 | _ _ _ _ P _ _ _ 
3 | _ _ _ _ _ _ P _ 
2 | P P P P _ P _ P 
1 | R N B Q K B N R 
-------------------
  | A B C D E F G H 

Turn of: white
Succesful move
h2h4
8 | R N B Q K B N R 
7 | _ _ P P P P P P 
6 | P _ _ _ _ _ _ _ 
5 | _ P _ _ _ _ _ _ 
4 | _ _ _ _ P _ _ P 
3 | _ _ _ _ _ _ P _ 
2 | P P P P _ P _ _ 
1 | R N B Q K B N R 
-------------------
  | A B C D E F G H 

Turn of: black
Succesful move
c7c6
8 | R N B Q K B N R 
7 | _ _ _ P P P P P 
6 | P _ P _ _ _ _ _ 
5 | _ P _ _ _ _ _ _ 
4 | _ _ _ _ P _ _ P 
3 | _ _ _ _ _ _ P _ 
2 | P P P P _ P _ _ 
1 | R N B Q K B N R 
-------------------
  | A B C D E F G H 

Turn of: white
Succesful move
e4e5
8 | R N B Q K B N R 
7 | _ _ _ P P P P P 
6 | P _ P _ _ _ _ _ 
5 | _ P _ _ P _ _ _ 
4 | _ _ _ _ _ _ _ P 
3 | _ _ _ _ _ _ P _ 
2 | P P P P _ P _ _ 
1 | R N B Q K B N R 
-------------------
  | A B C D E F G H 

Turn of: black
Succesful move
c6c5
8 | R N B Q K B N R 
7 | _ _ _ P P P P P 
6 | P _ _ _ _ _ _ _ 
5 | _ P P _ P _ _ _ 
4 | _ _ _ _ _ _ _ P 
3 | _ _ _ _ _ _ P _ 
2 | P P P P _ P _ _ 
1 | R N B Q K B N R 
-------------------
  | A B C D E F G H 

Turn of: white
Succesful move
d1g4
8 | R N B Q K B N R 
7 | _ _ _ P P P P P 
6 | P _ _ _ _ _ _ _ 
5 | _ P P _ P _ _ _ 
4 | _ _ _ _ _ _ Q P 
3 | _ _ _ _ _ _ P _ 
2 | P P P P _ P _ _ 
1 | R N B _ K B N R 
-------------------
  | A B C D E F G H 

Turn of: black
Succesful move
d7d6
8 | R N B Q K B N R 
7 | _ _ _ _ P P P P 
6 | P _ _ P _ _ _ _ 
5 | _ P P _ P _ _ _ 
4 | _ _ _ _ _ _ Q P 
3 | _ _ _ _ _ _ P _ 
2 | P P P P _ P _ _ 
1 | R N B _ K B N R 
-------------------
  | A B C D E F G H 

Turn of: white
Succesful move
g4c8
8 | R N Q Q K B N R 
7 | _ _ _ _ P P P P 
6 | P _ _ P _ _ _ _ 
5 | _ P P _ P _ _ _ 
4 | _ _ _ _ _ _ _ P 
3 | _ _ _ _ _ _ P _ 
2 | P P P P _ P _ _ 
1 | R N B _ K B N R 
-------------------
  | A B C D E F G H 

Turn of: black
Succesful move
h7h5
8 | R N Q Q K B N R 
7 | _ _ _ _ P P P _ 
6 | P _ _ P _ _ _ _ 
5 | _ P P _ P _ _ P 
4 | _ _ _ _ _ _ _ P 
3 | _ _ _ _ _ _ P _ 
2 | P P P P _ P _ _ 
1 | R N B _ K B N R 
-------------------
  | A B C D E F G H 

Turn of: white
Succesful move
e5e6
8 | R N Q Q K B N R 
7 | _ _ _ _ P P P _ 
6 | P _ _ P P _ _ _ 
5 | _ P P _ _ _ _ P 
4 | _ _ _ _ _ _ _ P 
3 | _ _ _ _ _ _ P _ 
2 | P P P P _ P _ _ 
1 | R N B _ K B N R 
-------------------
  | A B C D E F G H 

Turn of: black
Succesful move
b8c6
8 | R _ Q Q K B N R 
7 | _ _ _ _ P P P _ 
6 | P _ N P P _ _ _ 
5 | _ P P _ _ _ _ P 
4 | _ _ _ _ _ _ _ P 
3 | _ _ _ _ _ _ P _ 
2 | P P P P _ P _ _ 
1 | R N B _ K B N R 
-------------------
  | A B C D E F G H 

Turn of: white
Succesful move
f1h3
8 | R _ Q Q K B N R 
7 | _ _ _ _ P P P _ 
6 | P _ N P P _ _ _ 
5 | _ P P _ _ _ _ P 
4 | _ _ _ _ _ _ _ P 
3 | _ _ _ _ _ _ P B 
2 | P P P P _ P _ _ 
1 | R N B _ K _ N R 
-------------------
  | A B C D E F G H 

Turn of: black
Succesful move
c6a5
8 | R _ Q Q K B N R 
7 | _ _ _ _ P P P _ 
6 | P _ _ P P _ _ _ 
5 | N P P _ _ _ _ P 
4 | _ _ _ _ _ _ _ P 
3 | _ _ _ _ _ _ P B 
2 | P P P P _ P _ _ 
1 | R N B _ K _ N R 
-------------------
  | A B C D E F G H 

Turn of: white
Succesful move
c2c3
8 | R _ Q Q K B N R 
7 | _ _ _ _ P P P _ 
6 | P _ _ P P _ _ _ 
5 | N P P _ _ _ _ P 
4 | _ _ _ _ _ _ _ P 
3 | _ _ P _ _ _ P B 
2 | P P _ P _ P _ _ 
1 | R N B _ K _ N R 
-------------------
  | A B C D E F G H 

Turn of: black
Succesful move
f7f6
8 | R _ Q Q K B N R 
7 | _ _ _ _ P _ P _ 
6 | P _ _ P P P _ _ 
5 | N P P _ _ _ _ P 
4 | _ _ _ _ _ _ _ P 
3 | _ _ P _ _ _ P B 
2 | P P _ P _ P _ _ 
1 | R N B _ K _ N R 
-------------------
  | A B C D E F G H 

Turn of: white
Succesful move
c3c4
8 | R _ Q Q K B N R 
7 | _ _ _ _ P _ P _ 
6 | P _ _ P P P _ _ 
5 | N P P _ _ _ _ P 
4 | _ _ P _ _ _ _ P 
3 | _ _ _ _ _ _ P B 
2 | P P _ P _ P _ _ 
1 | R N B _ K _ N R 
-------------------
  | A B C D E F G H 

Turn of: black
Succesful move
a8a7
8 | _ _ Q Q K B N R 
7 | R _ _ _ P _ P _ 
6 | P _ _ P P P _ _ 
5 | N P P _ _ _ _ P 
4 | _ _ P _ _ _ _ P 
3 | _ _ _ _ _ _ P B 
2 | P P _ P _ P _ _ 
1 | R N B _ K _ N R 
-------------------
  | A B C D E F G H 

We are playing as White
Move history:
e2e4
b7b5
g2g3
a7a6
h2h4
c7c6
e4e5
c6c5
d1g4
d7d6
g4c8
h7h5
e5e6
b8c6
f1h3
c6a5
c2c3
f7f6
c3c4
a8a7
8 | _ _ Q Q K B N R 
7 | R _ _ _ P _ P _ 
6 | P _ _ P P P _ _ 
5 | N P P _ _ _ _ P 
4 | _ _ P _ _ _ _ P 
3 | _ _ _ _ _ _ P B 
2 | P P _ P _ P _ _ 
1 | R N B _ K _ N R 
-------------------
  | A B C D E F G H 

It is white's turn to play.
AI's move: b2b4
Move written: b2b4
[32;1m[Game] [0mPlayer's error code: 0
[32;1m[Game] [0mChecking move validity...
[32;1m[Board] [0mInitializing board...
[32;1m[Board] [0mLoading history file `championship/lizzie-iii-the-terminator/history.csv`...
[32;1m[Board] [0mLoaded 20 move(s).
[32;1m[Board] [0mLoading move file `championship/lizzie-iii-the-terminator/move.csv`...
[32;1m[Board] [0mWhite player is playing b2 to b4.
[32;1m[Board] [0m
[32;1m[Board] [0m    a b c d e f g h 
[32;1m[Board] [0m  -------------------
[32;1m[Board] [0m8 ||[7;1m [0m| |[0;1mQ[0m|[30;1mQ[0m|[30;1mK[0m|[30;1mb[0m|[30;1mk[0m|[30;1mr[0m|| 8
[32;1m[Board] [0m  -------------------
[32;1m[Board] [0m7 ||[30;1mr[0m|[7;1m [0m| |[7;1m [0m|[30;1mp[0m|[7;1m [0m|[30;1mp[0m|[7;1m [0m|| 7
[32;1m[Board] [0m  -------------------
[32;1m[Board] [0m6 ||[30;1mp[0m| |[7;1m [0m|[30;1mp[0m|[0;1mp[0m|[30;1mp[0m|[7;1m [0m| || 6
[32;1m[Board] [0m  -------------------
[32;1m[Board] [0m5 ||[30;1mk[0m|[30;1mp[0m|[30;1mp[0m|[7;1m [0m| |[7;1m [0m| |[30;1mp[0m|| 5
[32;1m[Board] [0m  -------------------
[32;1m[Board] [0m4 ||[7;1m [0m|[0;1mp[0m|[0;1mp[0m| |[7;1m [0m| |[7;1m [0m|[0;1mp[0m|| 4
[32;1m[Board] [0m  -------------------
[32;1m[Board] [0m3 || |[7;1m [0m| |[7;1m [0m| |[7;1m [0m|[0;1mp[0m|[0;1mb[0m|| 3
[32;1m[Board] [0m  -------------------
[32;1m[Board] [0m2 ||[0;1mp[0m| |[7;1m [0m|[0;1mp[0m|[7;1m [0m|[0;1mp[0m|[7;1m [0m| || 2
[32;1m[Board] [0m  -------------------
[32;1m[Board] [0m1 ||[0;1mr[0m|[0;1mk[0m|[0;1mb[0m|[7;1m [0m|[0;1mK[0m|[7;1m [0m|[0;1mk[0m|[0;1mr[0m|| 1
[32;1m[Board] [0m  -------------------
[32;1m[Board] [0m    a b c d e f g h
[32;1m[Board] [0m
[32;1m[Referee] [0mThis is the turn of the Black player...
[32;1m[Game] [0mPlayer's error code: 0
[32;1m[Game] [0mChecking move validity...
[32;1m[Board] [0mInitializing board...
[32;1m[Board] [0mLoading history file `championship/lizzie-iii-the-terminator/history.csv`...
[32;1m[Board] [0mLoaded 21 move(s).
[32;1m[Board] [0mLoading move file `championship/lizzie-iii-the-terminator/move.csv`...
[32;1m[Board] [0mBlack player is playing f6 to f5.
[32;1m[Board] [0m
[32;1m[Board] [0m    a b c d e f g h 
[32;1m[Board] [0m  -------------------
[32;1m[Board] [0m8 ||[7;1m [0m| |[0;1mQ[0m|[30;1mQ[0m|[30;1mK[0m|[30;1mb[0m|[30;1mk[0m|[30;1mr[0m|| 8
[32;1m[Board] [0m  -------------------
[32;1m[Board] [0m7 ||[30;1mr[0m|[7;1m [0m| |[7;1m [0m|[30;1mp[0m|[7;1m [0m|[30;1mp[0m|[7;1m [0m|| 7
[32;1m[Board] [0m  -------------------
[32;1m[Board] [0m6 ||[30;1mp[0m| |[7;1m [0m|[30;1mp[0m|[0;1mp[0m| |[7;1m [0m| || 6
[32;1m[Board] [0m  -------------------
[32;1m[Board] [0m5 ||[30;1mk[0m|[30;1mp[0m|[30;1mp[0m|[7;1m [0m| |[30;1mp[0m| |[30;1mp[0m|| 5
[32;1m[Board] [0m  -------------------
[32;1m[Board] [0m4 ||[7;1m [0m|[0;1mp[0m|[0;1mp[0m| |[7;1m [0m| |[7;1m [0m|[0;1mp[0m|| 4
[32;1m[Board] [0m  -------------------
[32;1m[Board] [0m3 || |[7;1m [0m| |[7;1m [0m| |[7;1m [0m|[0;1mp[0m|[0;1mb[0m|| 3
[32;1m[Board] [0m  -------------------
[32;1m[Board] [0m2 ||[0;1mp[0m| |[7;1m [0m|[0;1mp[0m|[7;1m [0m|[0;1mp[0m|[7;1m [0m| || 2
[32;1m[Board] [0m  -------------------
[32;1m[Board] [0m1 ||[0;1mr[0m|[0;1mk[0m|[0;1mb[0m|[7;1m [0m|[0;1mK[0m|[7;1m [0m|[0;1mk[0m|[0;1mr[0m|| 1
[32;1m[Board] [0m  -------------------
[32;1m[Board] [0m    a b c d e f g h
[32;1m[Board] [0m
[32;1m[Referee] [0mThis is the turn of the White player...
Input file: championship/lizzie-iii-the-terminator/history.csv
Output file: championship/lizzie-iii-the-terminator/move.csv
Turn of: white
Succesful move
e2e4
8 | R N B Q K B N R 
7 | P P P P P P P P 
6 | _ _ _ _ _ _ _ _ 
5 | _ _ _ _ _ _ _ _ 
4 | _ _ _ _ P _ _ _ 
3 | _ _ _ _ _ _ _ _ 
2 | P P P P _ P P P 
1 | R N B Q K B N R 
-------------------
  | A B C D E F G H 

Turn of: black
Succesful move
b7b5
8 | R N B Q K B N R 
7 | P _ P P P P P P 
6 | _ _ _ _ _ _ _ _ 
5 | _ P _ _ _ _ _ _ 
4 | _ _ _ _ P _ _ _ 
3 | _ _ _ _ _ _ _ _ 
2 | P P P P _ P P P 
1 | R N B Q K B N R 
-------------------
  | A B C D E F G H 

Turn of: white
Succesful move
g2g3
8 | R N B Q K B N R 
7 | P _ P P P P P P 
6 | _ _ _ _ _ _ _ _ 
5 | _ P _ _ _ _ _ _ 
4 | _ _ _ _ P _ _ _ 
3 | _ _ _ _ _ _ P _ 
2 | P P P P _ P _ P 
1 | R N B Q K B N R 
-------------------
  | A B C D E F G H 

Turn of: black
Succesful move
a7a6
8 | R N B Q K B N R 
7 | _ _ P P P P P P 
6 | P _ _ _ _ _ _ _ 
5 | _ P _ _ _ _ _ _ 
4 | _ _ _ _ P _ _ _ 
3 | _ _ _ _ _ _ P _ 
2 | P P P P _ P _ P 
1 | R N B Q K B N R 
-------------------
  | A B C D E F G H 

Turn of: white
Succesful move
h2h4
8 | R N B Q K B N R 
7 | _ _ P P P P P P 
6 | P _ _ _ _ _ _ _ 
5 | _ P _ _ _ _ _ _ 
4 | _ _ _ _ P _ _ P 
3 | _ _ _ _ _ _ P _ 
2 | P P P P _ P _ _ 
1 | R N B Q K B N R 
-------------------
  | A B C D E F G H 

Turn of: black
Succesful move
c7c6
8 | R N B Q K B N R 
7 | _ _ _ P P P P P 
6 | P _ P _ _ _ _ _ 
5 | _ P _ _ _ _ _ _ 
4 | _ _ _ _ P _ _ P 
3 | _ _ _ _ _ _ P _ 
2 | P P P P _ P _ _ 
1 | R N B Q K B N R 
-------------------
  | A B C D E F G H 

Turn of: white
Succesful move
e4e5
8 | R N B Q K B N R 
7 | _ _ _ P P P P P 
6 | P _ P _ _ _ _ _ 
5 | _ P _ _ P _ _ _ 
4 | _ _ _ _ _ _ _ P 
3 | _ _ _ _ _ _ P _ 
2 | P P P P _ P _ _ 
1 | R N B Q K B N R 
-------------------
  | A B C D E F G H 

Turn of: black
Succesful move
c6c5
8 | R N B Q K B N R 
7 | _ _ _ P P P P P 
6 | P _ _ _ _ _ _ _ 
5 | _ P P _ P _ _ _ 
4 | _ _ _ _ _ _ _ P 
3 | _ _ _ _ _ _ P _ 
2 | P P P P _ P _ _ 
1 | R N B Q K B N R 
-------------------
  | A B C D E F G H 

Turn of: white
Succesful move
d1g4
8 | R N B Q K B N R 
7 | _ _ _ P P P P P 
6 | P _ _ _ _ _ _ _ 
5 | _ P P _ P _ _ _ 
4 | _ _ _ _ _ _ Q P 
3 | _ _ _ _ _ _ P _ 
2 | P P P P _ P _ _ 
1 | R N B _ K B N R 
-------------------
  | A B C D E F G H 

Turn of: black
Succesful move
d7d6
8 | R N B Q K B N R 
7 | _ _ _ _ P P P P 
6 | P _ _ P _ _ _ _ 
5 | _ P P _ P _ _ _ 
4 | _ _ _ _ _ _ Q P 
3 | _ _ _ _ _ _ P _ 
2 | P P P P _ P _ _ 
1 | R N B _ K B N R 
-------------------
  | A B C D E F G H 

Turn of: white
Succesful move
g4c8
8 | R N Q Q K B N R 
7 | _ _ _ _ P P P P 
6 | P _ _ P _ _ _ _ 
5 | _ P P _ P _ _ _ 
4 | _ _ _ _ _ _ _ P 
3 | _ _ _ _ _ _ P _ 
2 | P P P P _ P _ _ 
1 | R N B _ K B N R 
-------------------
  | A B C D E F G H 

Turn of: black
Succesful move
h7h5
8 | R N Q Q K B N R 
7 | _ _ _ _ P P P _ 
6 | P _ _ P _ _ _ _ 
5 | _ P P _ P _ _ P 
4 | _ _ _ _ _ _ _ P 
3 | _ _ _ _ _ _ P _ 
2 | P P P P _ P _ _ 
1 | R N B _ K B N R 
-------------------
  | A B C D E F G H 

Turn of: white
Succesful move
e5e6
8 | R N Q Q K B N R 
7 | _ _ _ _ P P P _ 
6 | P _ _ P P _ _ _ 
5 | _ P P _ _ _ _ P 
4 | _ _ _ _ _ _ _ P 
3 | _ _ _ _ _ _ P _ 
2 | P P P P _ P _ _ 
1 | R N B _ K B N R 
-------------------
  | A B C D E F G H 

Turn of: black
Succesful move
b8c6
8 | R _ Q Q K B N R 
7 | _ _ _ _ P P P _ 
6 | P _ N P P _ _ _ 
5 | _ P P _ _ _ _ P 
4 | _ _ _ _ _ _ _ P 
3 | _ _ _ _ _ _ P _ 
2 | P P P P _ P _ _ 
1 | R N B _ K B N R 
-------------------
  | A B C D E F G H 

Turn of: white
Succesful move
f1h3
8 | R _ Q Q K B N R 
7 | _ _ _ _ P P P _ 
6 | P _ N P P _ _ _ 
5 | _ P P _ _ _ _ P 
4 | _ _ _ _ _ _ _ P 
3 | _ _ _ _ _ _ P B 
2 | P P P P _ P _ _ 
1 | R N B _ K _ N R 
-------------------
  | A B C D E F G H 

Turn of: black
Succesful move
c6a5
8 | R _ Q Q K B N R 
7 | _ _ _ _ P P P _ 
6 | P _ _ P P _ _ _ 
5 | N P P _ _ _ _ P 
4 | _ _ _ _ _ _ _ P 
3 | _ _ _ _ _ _ P B 
2 | P P P P _ P _ _ 
1 | R N B _ K _ N R 
-------------------
  | A B C D E F G H 

Turn of: white
Succesful move
c2c3
8 | R _ Q Q K B N R 
7 | _ _ _ _ P P P _ 
6 | P _ _ P P _ _ _ 
5 | N P P _ _ _ _ P 
4 | _ _ _ _ _ _ _ P 
3 | _ _ P _ _ _ P B 
2 | P P _ P _ P _ _ 
1 | R N B _ K _ N R 
-------------------
  | A B C D E F G H 

Turn of: black
Succesful move
f7f6
8 | R _ Q Q K B N R 
7 | _ _ _ _ P _ P _ 
6 | P _ _ P P P _ _ 
5 | N P P _ _ _ _ P 
4 | _ _ _ _ _ _ _ P 
3 | _ _ P _ _ _ P B 
2 | P P _ P _ P _ _ 
1 | R N B _ K _ N R 
-------------------
  | A B C D E F G H 

Turn of: white
Succesful move
c3c4
8 | R _ Q Q K B N R 
7 | _ _ _ _ P _ P _ 
6 | P _ _ P P P _ _ 
5 | N P P _ _ _ _ P 
4 | _ _ P _ _ _ _ P 
3 | _ _ _ _ _ _ P B 
2 | P P _ P _ P _ _ 
1 | R N B _ K _ N R 
-------------------
  | A B C D E F G H 

Turn of: black
Succesful move
a8a7
8 | _ _ Q Q K B N R 
7 | R _ _ _ P _ P _ 
6 | P _ _ P P P _ _ 
5 | N P P _ _ _ _ P 
4 | _ _ P _ _ _ _ P 
3 | _ _ _ _ _ _ P B 
2 | P P _ P _ P _ _ 
1 | R N B _ K _ N R 
-------------------
  | A B C D E F G H 

Turn of: white
Succesful move
b2b4
8 | _ _ Q Q K B N R 
7 | R _ _ _ P _ P _ 
6 | P _ _ P P P _ _ 
5 | N P P _ _ _ _ P 
4 | _ P P _ _ _ _ P 
3 | _ _ _ _ _ _ P B 
2 | P _ _ P _ P _ _ 
1 | R N B _ K _ N R 
-------------------
  | A B C D E F G H 

Turn of: black
Succesful move
f6f5
8 | _ _ Q Q K B N R 
7 | R _ _ _ P _ P _ 
6 | P _ _ P P _ _ _ 
5 | N P P _ _ P _ P 
4 | _ P P _ _ _ _ P 
3 | _ _ _ _ _ _ P B 
2 | P _ _ P _ P _ _ 
1 | R N B _ K _ N R 
-------------------
  | A B C D E F G H 

We are playing as White
Move history:
e2e4
b7b5
g2g3
a7a6
h2h4
c7c6
e4e5
c6c5
d1g4
d7d6
g4c8
h7h5
e5e6
b8c6
f1h3
c6a5
c2c3
f7f6
c3c4
a8a7
b2b4
f6f5
8 | _ _ Q Q K B N R 
7 | R _ _ _ P _ P _ 
6 | P _ _ P P _ _ _ 
5 | N P P _ _ P _ P 
4 | _ P P _ _ _ _ P 
3 | _ _ _ _ _ _ P B 
2 | P _ _ P _ P _ _ 
1 | R N B _ K _ N R 
-------------------
  | A B C D E F G H 

It is white's turn to play.
AI's move: b1a3
Move written: b1a3
[32;1m[Game] [0mPlayer's error code: 0
[32;1m[Game] [0mChecking move validity...
[32;1m[Board] [0mInitializing board...
[32;1m[Board] [0mLoading history file `championship/lizzie-iii-the-terminator/history.csv`...
[32;1m[Board] [0mLoaded 22 move(s).
[32;1m[Board] [0mLoading move file `championship/lizzie-iii-the-terminator/move.csv`...
[32;1m[Board] [0mWhite player is playing b1 to a3.
[32;1m[Board] [0m
[32;1m[Board] [0m    a b c d e f g h 
[32;1m[Board] [0m  -------------------
[32;1m[Board] [0m8 ||[7;1m [0m| |[0;1mQ[0m|[30;1mQ[0m|[30;1mK[0m|[30;1mb[0m|[30;1mk[0m|[30;1mr[0m|| 8
[...]
Succesful move
g2g3
8 | R N B Q K B N R 
7 | P _ P P P P P P 
6 | _ _ _ _ _ _ _ _ 
5 | _ P _ _ _ _ _ _ 
4 | _ _ _ _ P _ _ _ 
3 | _ _ _ _ _ _ P _ 
2 | P P P P _ P _ P 
1 | R N B Q K B N R 
-------------------
  | A B C D E F G H 

Turn of: black
Succesful move
a7a6
8 | R N B Q K B N R 
7 | _ _ P P P P P P 
6 | P _ _ _ _ _ _ _ 
5 | _ P _ _ _ _ _ _ 
4 | _ _ _ _ P _ _ _ 
3 | _ _ _ _ _ _ P _ 
2 | P P P P _ P _ P 
1 | R N B Q K B N R 
-------------------
  | A B C D E F G H 

Turn of: white
Succesful move
h2h4
8 | R N B Q K B N R 
7 | _ _ P P P P P P 
6 | P _ _ _ _ _ _ _ 
5 | _ P _ _ _ _ _ _ 
4 | _ _ _ _ P _ _ P 
3 | _ _ _ _ _ _ P _ 
2 | P P P P _ P _ _ 
1 | R N B Q K B N R 
-------------------
  | A B C D E F G H 

Turn of: black
Succesful move
c7c6
8 | R N B Q K B N R 
7 | _ _ _ P P P P P 
6 | P _ P _ _ _ _ _ 
5 | _ P _ _ _ _ _ _ 
4 | _ _ _ _ P _ _ P 
3 | _ _ _ _ _ _ P _ 
2 | P P P P _ P _ _ 
1 | R N B Q K B N R 
-------------------
  | A B C D E F G H 

Turn of: white
Succesful move
e4e5
8 | R N B Q K B N R 
7 | _ _ _ P P P P P 
6 | P _ P _ _ _ _ _ 
5 | _ P _ _ P _ _ _ 
4 | _ _ _ _ _ _ _ P 
3 | _ _ _ _ _ _ P _ 
2 | P P P P _ P _ _ 
1 | R N B Q K B N R 
-------------------
  | A B C D E F G H 

Turn of: black
Succesful move
c6c5
8 | R N B Q K B N R 
7 | _ _ _ P P P P P 
6 | P _ _ _ _ _ _ _ 
5 | _ P P _ P _ _ _ 
4 | _ _ _ _ _ _ _ P 
3 | _ _ _ _ _ _ P _ 
2 | P P P P _ P _ _ 
1 | R N B Q K B N R 
-------------------
  | A B C D E F G H 

Turn of: white
Succesful move
d1g4
8 | R N B Q K B N R 
7 | _ _ _ P P P P P 
6 | P _ _ _ _ _ _ _ 
5 | _ P P _ P _ _ _ 
4 | _ _ _ _ _ _ Q P 
3 | _ _ _ _ _ _ P _ 
2 | P P P P _ P _ _ 
1 | R N B _ K B N R 
-------------------
  | A B C D E F G H 

Turn of: black
Succesful move
d7d6
8 | R N B Q K B N R 
7 | _ _ _ _ P P P P 
6 | P _ _ P _ _ _ _ 
5 | _ P P _ P _ _ _ 
4 | _ _ _ _ _ _ Q P 
3 | _ _ _ _ _ _ P _ 
2 | P P P P _ P _ _ 
1 | R N B _ K B N R 
-------------------
  | A B C D E F G H 

Turn of: white
Succesful move
g4c8
8 | R N Q Q K B N R 
7 | _ _ _ _ P P P P 
6 | P _ _ P _ _ _ _ 
5 | _ P P _ P _ _ _ 
4 | _ _ _ _ _ _ _ P 
3 | _ _ _ _ _ _ P _ 
2 | P P P P _ P _ _ 
1 | R N B _ K B N R 
-------------------
  | A B C D E F G H 

Turn of: black
Succesful move
h7h5
8 | R N Q Q K B N R 
7 | _ _ _ _ P P P _ 
6 | P _ _ P _ _ _ _ 
5 | _ P P _ P _ _ P 
4 | _ _ _ _ _ _ _ P 
3 | _ _ _ _ _ _ P _ 
2 | P P P P _ P _ _ 
1 | R N B _ K B N R 
-------------------
  | A B C D E F G H 

Turn of: white
Succesful move
e5e6
8 | R N Q Q K B N R 
7 | _ _ _ _ P P P _ 
6 | P _ _ P P _ _ _ 
5 | _ P P _ _ _ _ P 
4 | _ _ _ _ _ _ _ P 
3 | _ _ _ _ _ _ P _ 
2 | P P P P _ P _ _ 
1 | R N B _ K B N R 
-------------------
  | A B C D E F G H 

Turn of: black
Succesful move
b8c6
8 | R _ Q Q K B N R 
7 | _ _ _ _ P P P _ 
6 | P _ N P P _ _ _ 
5 | _ P P _ _ _ _ P 
4 | _ _ _ _ _ _ _ P 
3 | _ _ _ _ _ _ P _ 
2 | P P P P _ P _ _ 
1 | R N B _ K B N R 
-------------------
  | A B C D E F G H 

Turn of: white
Succesful move
f1h3
8 | R _ Q Q K B N R 
7 | _ _ _ _ P P P _ 
6 | P _ N P P _ _ _ 
5 | _ P P _ _ _ _ P 
4 | _ _ _ _ _ _ _ P 
3 | _ _ _ _ _ _ P B 
2 | P P P P _ P _ _ 
1 | R N B _ K _ N R 
-------------------
  | A B C D E F G H 

Turn of: black
Succesful move
c6a5
8 | R _ Q Q K B N R 
7 | _ _ _ _ P P P _ 
6 | P _ _ P P _ _ _ 
5 | N P P _ _ _ _ P 
4 | _ _ _ _ _ _ _ P 
3 | _ _ _ _ _ _ P B 
2 | P P P P _ P _ _ 
1 | R N B _ K _ N R 
-------------------
  | A B C D E F G H 

Turn of: white
Succesful move
c2c3
8 | R _ Q Q K B N R 
7 | _ _ _ _ P P P _ 
6 | P _ _ P P _ _ _ 
5 | N P P _ _ _ _ P 
4 | _ _ _ _ _ _ _ P 
3 | _ _ P _ _ _ P B 
2 | P P _ P _ P _ _ 
1 | R N B _ K _ N R 
-------------------
  | A B C D E F G H 

Turn of: black
Succesful move
f7f6
8 | R _ Q Q K B N R 
7 | _ _ _ _ P _ P _ 
6 | P _ _ P P P _ _ 
5 | N P P _ _ _ _ P 
4 | _ _ _ _ _ _ _ P 
3 | _ _ P _ _ _ P B 
2 | P P _ P _ P _ _ 
1 | R N B _ K _ N R 
-------------------
  | A B C D E F G H 

Turn of: white
Succesful move
c3c4
8 | R _ Q Q K B N R 
7 | _ _ _ _ P _ P _ 
6 | P _ _ P P P _ _ 
5 | N P P _ _ _ _ P 
4 | _ _ P _ _ _ _ P 
3 | _ _ _ _ _ _ P B 
2 | P P _ P _ P _ _ 
1 | R N B _ K _ N R 
-------------------
  | A B C D E F G H 

Turn of: black
Succesful move
a8a7
8 | _ _ Q Q K B N R 
7 | R _ _ _ P _ P _ 
6 | P _ _ P P P _ _ 
5 | N P P _ _ _ _ P 
4 | _ _ P _ _ _ _ P 
3 | _ _ _ _ _ _ P B 
2 | P P _ P _ P _ _ 
1 | R N B _ K _ N R 
-------------------
  | A B C D E F G H 

Turn of: white
Succesful move
b2b4
8 | _ _ Q Q K B N R 
7 | R _ _ _ P _ P _ 
6 | P _ _ P P P _ _ 
5 | N P P _ _ _ _ P 
4 | _ P P _ _ _ _ P 
3 | _ _ _ _ _ _ P B 
2 | P _ _ P _ P _ _ 
1 | R N B _ K _ N R 
-------------------
  | A B C D E F G H 

Turn of: black
Succesful move
f6f5
8 | _ _ Q Q K B N R 
7 | R _ _ _ P _ P _ 
6 | P _ _ P P _ _ _ 
5 | N P P _ _ P _ P 
4 | _ P P _ _ _ _ P 
3 | _ _ _ _ _ _ P B 
2 | P _ _ P _ P _ _ 
1 | R N B _ K _ N R 
-------------------
  | A B C D E F G H 

Turn of: white
Succesful move
b1a3
8 | _ _ Q Q K B N R 
7 | R _ _ _ P _ P _ 
6 | P _ _ P P _ _ _ 
5 | N P P _ _ P _ P 
4 | _ P P _ _ _ _ P 
3 | N _ _ _ _ _ P B 
2 | P _ _ P _ P _ _ 
1 | R _ B _ K _ N R 
-------------------
  | A B C D E F G H 

Turn of: black
Succesful move
a7a8
8 | R _ Q Q K B N R 
7 | _ _ _ _ P _ P _ 
6 | P _ _ P P _ _ _ 
5 | N P P _ _ P _ P 
4 | _ P P _ _ _ _ P 
3 | N _ _ _ _ _ P B 
2 | P _ _ P _ P _ _ 
1 | R _ B _ K _ N R 
-------------------
  | A B C D E F G H 

Turn of: white
Succesful move
b4a5
8 | R _ Q Q K B N R 
7 | _ _ _ _ P _ P _ 
6 | P _ _ P P _ _ _ 
5 | P P P _ _ P _ P 
4 | _ _ P _ _ _ _ P 
3 | N _ _ _ _ _ P B 
2 | P _ _ P _ P _ _ 
1 | R _ B _ K _ N R 
-------------------
  | A B C D E F G H 

Turn of: black
Succesful move
b5c4
8 | R _ Q Q K B N R 
7 | _ _ _ _ P _ P _ 
6 | P _ _ P P _ _ _ 
5 | P _ P _ _ P _ P 
4 | _ _ P _ _ _ _ P 
3 | N _ _ _ _ _ P B 
2 | P _ _ P _ P _ _ 
1 | R _ B _ K _ N R 
-------------------
  | A B C D E F G H 

We are playing as White
Move history:
e2e4
b7b5
g2g3
a7a6
h2h4
c7c6
e4e5
c6c5
d1g4
d7d6
g4c8
h7h5
e5e6
b8c6
f1h3
c6a5
c2c3
f7f6
c3c4
a8a7
b2b4
f6f5
b1a3
a7a8
b4a5
b5c4
8 | R _ Q Q K B N R 
7 | _ _ _ _ P _ P _ 
6 | P _ _ P P _ _ _ 
5 | P _ P _ _ P _ P 
4 | _ _ P _ _ _ _ P 
3 | N _ _ _ _ _ P B 
2 | P _ _ P _ P _ _ 
1 | R _ B _ K _ N R 
-------------------
  | A B C D E F G H 

It is white's turn to play.
AI's move: c8b7
Move written: c8b7
[32;1m[Game] [0mPlayer's error code: 0
[32;1m[Game] [0mChecking move validity...
[32;1m[Board] [0mInitializing board...
[32;1m[Board] [0mLoading history file `championship/lizzie-iii-the-terminator/history.csv`...
[32;1m[Board] [0mLoaded 26 move(s).
[32;1m[Board] [0mLoading move file `championship/lizzie-iii-the-terminator/move.csv`...
[32;1m[Board] [0mWhite player is playing c8 to b7.
[32;1m[Board] [0m
[32;1m[Board] [0m    a b c d e f g h 
[32;1m[Board] [0m  -------------------
[32;1m[Board] [0m8 ||[30;1mr[0m| |[7;1m [0m|[30;1mQ[0m|[30;1mK[0m|[30;1mb[0m|[30;1mk[0m|[30;1mr[0m|| 8
[32;1m[Board] [0m  -------------------
[32;1m[Board] [0m7 || |[0;1mQ[0m| |[7;1m [0m|[30;1mp[0m|[7;1m [0m|[30;1mp[0m|[7;1m [0m|| 7
[32;1m[Board] [0m  -------------------
[32;1m[Board] [0m6 ||[30;1mp[0m| |[7;1m [0m|[30;1mp[0m|[0;1mp[0m| |[7;1m [0m| || 6
[32;1m[Board] [0m  -------------------
[32;1m[Board] [0m5 ||[0;1mp[0m|[7;1m [0m|[30;1mp[0m|[7;1m [0m| |[30;1mp[0m| |[30;1mp[0m|| 5
[32;1m[Board] [0m  -------------------
[32;1m[Board] [0m4 ||[7;1m [0m| |[30;1mp[0m| |[7;1m [0m| |[7;1m [0m|[0;1mp[0m|| 4
[32;1m[Board] [0m  -------------------
[32;1m[Board] [0m3 ||[0;1mk[0m|[7;1m [0m| |[7;1m [0m| |[7;1m [0m|[0;1mp[0m|[0;1mb[0m|| 3
[32;1m[Board] [0m  -------------------
[32;1m[Board] [0m2 ||[0;1mp[0m| |[7;1m [0m|[0;1mp[0m|[7;1m [0m|[0;1mp[0m|[7;1m [0m| || 2
[32;1m[Board] [0m  -------------------
[32;1m[Board] [0m1 ||[0;1mr[0m|[7;1m [0m|[0;1mb[0m|[7;1m [0m|[0;1mK[0m|[7;1m [0m|[0;1mk[0m|[0;1mr[0m|| 1
[32;1m[Board] [0m  -------------------
[32;1m[Board] [0m    a b c d e f g h
[32;1m[Board] [0m
[32;1m[Referee] [0mThis is the turn of the Black player...
[32;1m[Game] [0mPlayer's error code: 0
[32;1m[Game] [0mChecking move validity...
[32;1m[Board] [0mInitializing board...
[32;1m[Board] [0mLoading history file `championship/lizzie-iii-the-terminator/history.csv`...
[32;1m[Board] [0mLoaded 27 move(s).
[32;1m[Board] [0mLoading move file `championship/lizzie-iii-the-terminator/move.csv`...
[32;1m[Board] [0mBlack player is playing f5 to f4.
[32;1m[Board] [0m
[32;1m[Board] [0m    a b c d e f g h 
[32;1m[Board] [0m  -------------------
[32;1m[Board] [0m8 ||[30;1mr[0m| |[7;1m [0m|[30;1mQ[0m|[30;1mK[0m|[30;1mb[0m|[30;1mk[0m|[30;1mr[0m|| 8
[32;1m[Board] [0m  -------------------
[32;1m[Board] [0m7 || |[0;1mQ[0m| |[7;1m [0m|[30;1mp[0m|[7;1m [0m|[30;1mp[0m|[7;1m [0m|| 7
[32;1m[Board] [0m  -------------------
[32;1m[Board] [0m6 ||[30;1mp[0m| |[7;1m [0m|[30;1mp[0m|[0;1mp[0m| |[7;1m [0m| || 6
[32;1m[Board] [0m  -------------------
[32;1m[Board] [0m5 ||[0;1mp[0m|[7;1m [0m|[30;1mp[0m|[7;1m [0m| |[7;1m [0m| |[30;1mp[0m|| 5
[32;1m[Board] [0m  -------------------
[32;1m[Board] [0m4 ||[7;1m [0m| |[30;1mp[0m| |[7;1m [0m|[30;1mp[0m|[7;1m [0m|[0;1mp[0m|| 4
[32;1m[Board] [0m  -------------------
[32;1m[Board] [0m3 ||[0;1mk[0m|[7;1m [0m| |[7;1m [0m| |[7;1m [0m|[0;1mp[0m|[0;1mb[0m|| 3
[32;1m[Board] [0m  -------------------
[32;1m[Board] [0m2 ||[0;1mp[0m| |[7;1m [0m|[0;1mp[0m|[7;1m [0m|[0;1mp[0m|[7;1m [0m| || 2
[32;1m[Board] [0m  -------------------
[32;1m[Board] [0m1 ||[0;1mr[0m|[7;1m [0m|[0;1mb[0m|[7;1m [0m|[0;1mK[0m|[7;1m [0m|[0;1mk[0m|[0;1mr[0m|| 1
[32;1m[Board] [0m  -------------------
[32;1m[Board] [0m    a b c d e f g h
[32;1m[Board] [0m
[32;1m[Referee] [0mThis is the turn of the White player...
Input file: championship/lizzie-iii-the-terminator/history.csv
Output file: championship/lizzie-iii-the-terminator/move.csv
Turn of: white
Succesful move
e2e4
8 | R N B Q K B N R 
7 | P P P P P P P P 
6 | _ _ _ _ _ _ _ _ 
5 | _ _ _ _ _ _ _ _ 
4 | _ _ _ _ P _ _ _ 
3 | _ _ _ _ _ _ _ _ 
2 | P P P P _ P P P 
1 | R N B Q K B N R 
-------------------
  | A B C D E F G H 

Turn of: black
Succesful move
b7b5
8 | R N B Q K B N R 
7 | P _ P P P P P P 
6 | _ _ _ _ _ _ _ _ 
5 | _ P _ _ _ _ _ _ 
4 | _ _ _ _ P _ _ _ 
3 | _ _ _ _ _ _ _ _ 
2 | P P P P _ P P P 
1 | R N B Q K B N R 
-------------------
  | A B C D E F G H 

Turn of: white
Succesful move
g2g3
8 | R N B Q K B N R 
7 | P _ P P P P P P 
6 | _ _ _ _ _ _ _ _ 
5 | _ P _ _ _ _ _ _ 
4 | _ _ _ _ P _ _ _ 
3 | _ _ _ _ _ _ P _ 
2 | P P P P _ P _ P 
1 | R N B Q K B N R 
-------------------
  | A B C D E F G H 

Turn of: black
Succesful move
a7a6
8 | R N B Q K B N R 
7 | _ _ P P P P P P 
6 | P _ _ _ _ _ _ _ 
5 | _ P _ _ _ _ _ _ 
4 | _ _ _ _ P _ _ _ 
3 | _ _ _ _ _ _ P _ 
2 | P P P P _ P _ P 
1 | R N B Q K B N R 
-------------------
  | A B C D E F G H 

Turn of: white
Succesful move
h2h4
8 | R N B Q K B N R 
7 | _ _ P P P P P P 
6 | P _ _ _ _ _ _ _ 
5 | _ P _ _ _ _ _ _ 
4 | _ _ _ _ P _ _ P 
3 | _ _ _ _ _ _ P _ 
2 | P P P P _ P _ _ 
1 | R N B Q K B N R 
-------------------
  | A B C D E F G H 

Turn of: black
Succesful move
c7c6
8 | R N B Q K B N R 
7 | _ _ _ P P P P P 
6 | P _ P _ _ _ _ _ 
5 | _ P _ _ _ _ _ _ 
4 | _ _ _ _ P _ _ P 
3 | _ _ _ _ _ _ P _ 
2 | P P P P _ P _ _ 
1 | R N B Q K B N R 
-------------------
  | A B C D E F G H 

Turn of: white
Succesful move
e4e5
8 | R N B Q K B N R 
7 | _ _ _ P P P P P 
6 | P _ P _ _ _ _ _ 
5 | _ P _ _ P _ _ _ 
4 | _ _ _ _ _ _ _ P 
3 | _ _ _ _ _ _ P _ 
2 | P P P P _ P _ _ 
1 | R N B Q K B N R 
-------------------
  | A B C D E F G H 

Turn of: black
Succesful move
c6c5
8 | R N B Q K B N R 
7 | _ _ _ P P P P P 
6 | P _ _ _ _ _ _ _ 
5 | _ P P _ P _ _ _ 
4 | _ _ _ _ _ _ _ P 
3 | _ _ _ _ _ _ P _ 
2 | P P P P _ P _ _ 
1 | R N B Q K B N R 
-------------------
  | A B C D E F G H 

Turn of: white
Succesful move
d1g4
8 | R N B Q K B N R 
7 | _ _ _ P P P P P 
6 | P _ _ _ _ _ _ _ 
5 | _ P P _ P _ _ _ 
4 | _ _ _ _ _ _ Q P 
3 | _ _ _ _ _ _ P _ 
2 | P P P P _ P _ _ 
1 | R N B _ K B N R 
-------------------
  | A B C D E F G H 

Turn of: black
Succesful move
d7d6
8 | R N B Q K B N R 
7 | _ _ _ _ P P P P 
6 | P _ _ P _ _ _ _ 
5 | _ P P _ P _ _ _ 
4 | _ _ _ _ _ _ Q P 
3 | _ _ _ _ _ _ P _ 
2 | P P P P _ P _ _ 
1 | R N B _ K B N R 
-------------------
  | A B C D E F G H 

Turn of: white
Succesful move
g4c8
8 | R N Q Q K B N R 
7 | _ _ _ _ P P P P 
6 | P _ _ P _ _ _ _ 
5 | _ P P _ P _ _ _ 
4 | _ _ _ _ _ _ _ P 
3 | _ _ _ _ _ _ P _ 
2 | P P P P _ P _ _ 
1 | R N B _ K B N R 
-------------------
  | A B C D E F G H 

Turn of: black
Succesful move
h7h5
8 | R N Q Q K B N R 
7 | _ _ _ _ P P P _ 
6 | P _ _ P _ _ _ _ 
5 | _ P P _ P _ _ P 
4 | _ _ _ _ _ _ _ P 
3 | _ _ _ _ _ _ P _ 
2 | P P P P _ P _ _ 
1 | R N B _ K B N R 
-------------------
  | A B C D E F G H 

Turn of: white
Succesful move
e5e6
8 | R N Q Q K B N R 
7 | _ _ _ _ P P P _ 
6 | P _ _ P P _ _ _ 
5 | _ P P _ _ _ _ P 
4 | _ _ _ _ _ _ _ P 
3 | _ _ _ _ _ _ P _ 
2 | P P P P _ P _ _ 
1 | R N B _ K B N R 
-------------------
  | A B C D E F G H 

Turn of: black
Succesful move
b8c6
8 | R _ Q Q K B N R 
7 | _ _ _ _ P P P _ 
6 | P _ N P P _ _ _ 
5 | _ P P _ _ _ _ P 
4 | _ _ _ _ _ _ _ P 
3 | _ _ _ _ _ _ P _ 
2 | P P P P _ P _ _ 
1 | R N B _ K B N R 
-------------------
  | A B C D E F G H 

Turn of: white
Succesful move
f1h3
8 | R _ Q Q K B N R 
7 | _ _ _ _ P P P _ 
6 | P _ N P P _ _ _ 
5 | _ P P _ _ _ _ P 
4 | _ _ _ _ _ _ _ P 
3 | _ _ _ _ _ _ P B 
2 | P P P P _ P _ _ 
1 | R N B _ K _ N R 
-------------------
  | A B C D E F G H 

Turn of: black
Succesful move
c6a5
8 | R _ Q Q K B N R 
7 | _ _ _ _ P P P _ 
6 | P _ _ P P _ _ _ 
5 | N P P _ _ _ _ P 
4 | _ _ _ _ _ _ _ P 
3 | _ _ _ _ _ _ P B 
2 | P P P P _ P _ _ 
1 | R N B _ K _ N R 
-------------------
  | A B C D E F G H 

Turn of: white
Succesful move
c2c3
8 | R _ Q Q K B N R 
7 | _ _ _ _ P P P _ 
6 | P _ _ P P _ _ _ 
5 | N P P _ _ _ _ P 
4 | _ _ _ _ _ _ _ P 
3 | _ _ P _ _ _ P B 
2 | P P _ P _ P _ _ 
1 | R N B _ K _ N R 
-------------------
  | A B C D E F G H 

Turn of: black
Succesful move
f7f6
8 | R _ Q Q K B N R 
7 | _ _ _ _ P _ P _ 
6 | P _ _ P P P _ _ 
5 | N P P _ _ _ _ P 
4 | _ _ _ _ _ _ _ P 
3 | _ _ P _ _ _ P B 
2 | P P _ P _ P _ _ 
1 | R N B _ K _ N R 
-------------------
  | A B C D E F G H 

Turn of: white
Succesful move
c3c4
8 | R _ Q Q K B N R 
7 | _ _ _ _ P _ P _ 
6 | P _ _ P P P _ _ 
5 | N P P _ _ _ _ P 
4 | _ _ P _ _ _ _ P 
3 | _ _ _ _ _ _ P B 
2 | P P _ P _ P _ _ 
1 | R N B _ K _ N R 
-------------------
  | A B C D E F G H 

Turn of: black
Succesful move
a8a7
8 | _ _ Q Q K B N R 
7 | R _ _ _ P _ P _ 
6 | P _ _ P P P _ _ 
5 | N P P _ _ _ _ P 
4 | _ _ P _ _ _ _ P 
3 | _ _ _ _ _ _ P B 
2 | P P _ P _ P _ _ 
1 | R N B _ K _ N R 
-------------------
  | A B C D E F G H 

Turn of: white
Succesful move
b2b4
8 | _ _ Q Q K B N R 
7 | R _ _ _ P _ P _ 
6 | P _ _ P P P _ _ 
5 | N P P _ _ _ _ P 
4 | _ P P _ _ _ _ P 
3 | _ _ _ _ _ _ P B 
2 | P _ _ P _ P _ _ 
1 | R N B _ K _ N R 
-------------------
  | A B C D E F G H 

Turn of: black
Succesful move
f6f5
8 | _ _ Q Q K B N R 
7 | R _ _ _ P _ P _ 
6 | P _ _ P P _ _ _ 
5 | N P P _ _ P _ P 
4 | _ P P _ _ _ _ P 
3 | _ _ _ _ _ _ P B 
2 | P _ _ P _ P _ _ 
1 | R N B _ K _ N R 
-------------------
  | A B C D E F G H 

Turn of: white
Succesful move
b1a3
8 | _ _ Q Q K B N R 
7 | R _ _ _ P _ P _ 
6 | P _ _ P P _ _ _ 
5 | N P P _ _ P _ P 
4 | _ P P _ _ _ _ P 
3 | N _ _ _ _ _ P B 
2 | P _ _ P _ P _ _ 
1 | R _ B _ K _ N R 
-------------------
  | A B C D E F G H 

Turn of: black
Succesful move
a7a8
8 | R _ Q Q K B N R 
7 | _ _ _ _ P _ P _ 
6 | P _ _ P P _ _ _ 
5 | N P P _ _ P _ P 
4 | _ P P _ _ _ _ P 
3 | N _ _ _ _ _ P B 
2 | P _ _ P _ P _ _ 
1 | R _ B _ K _ N R 
-------------------
  | A B C D E F G H 

Turn of: white
Succesful move
b4a5
8 | R _ Q Q K B N R 
7 | _ _ _ _ P _ P _ 
6 | P _ _ P P _ _ _ 
5 | P P P _ _ P _ P 
4 | _ _ P _ _ _ _ P 
3 | N _ _ _ _ _ P B 
2 | P _ _ P _ P _ _ 
1 | R _ B _ K _ N R 
-------------------
  | A B C D E F G H 

Turn of: black
Succesful move
b5c4
8 | R _ Q Q K B N R 
7 | _ _ _ _ P _ P _ 
6 | P _ _ P P _ _ _ 
5 | P _ P _ _ P _ P 
4 | _ _ P _ _ _ _ P 
3 | N _ _ _ _ _ P B 
2 | P _ _ P _ P _ _ 
1 | R _ B _ K _ N R 
-------------------
  | A B C D E F G H 

Turn of: white
Succesful move
c8b7
8 | R _ _ Q K B N R 
7 | _ Q _ _ P _ P _ 
6 | P _ _ P P _ _ _ 
5 | P _ P _ _ P _ P 
4 | _ _ P _ _ _ _ P 
3 | N _ _ _ _ _ P B 
2 | P _ _ P _ P _ _ 
1 | R _ B _ K _ N R 
-------------------
  | A B C D E F G H 

Turn of: black
Succesful move
f5f4
8 | R _ _ Q K B N R 
7 | _ Q _ _ P _ P _ 
6 | P _ _ P P _ _ _ 
5 | P _ P _ _ _ _ P 
4 | _ _ P _ _ P _ P 
3 | N _ _ _ _ _ P B 
2 | P _ _ P _ P _ _ 
1 | R _ B _ K _ N R 
-------------------
  | A B C D E F G H 

We are playing as White
Move history:
e2e4
b7b5
g2g3
a7a6
h2h4
c7c6
e4e5
c6c5
d1g4
d7d6
g4c8
h7h5
e5e6
b8c6
f1h3
c6a5
c2c3
f7f6
c3c4
a8a7
b2b4
f6f5
b1a3
a7a8
b4a5
b5c4
c8b7
f5f4
8 | R _ _ Q K B N R 
7 | _ Q _ _ P _ P _ 
6 | P _ _ P P _ _ _ 
5 | P _ P _ _ _ _ P 
4 | _ _ P _ _ P _ P 
3 | N _ _ _ _ _ P B 
2 | P _ _ P _ P _ _ 
1 | R _ B _ K _ N R 
-------------------
  | A B C D E F G H 

It is white's turn to play.
AI's move: b7d7
Move written: b7d7
[32;1m[Game] [0mPlayer's error code: 0
[32;1m[Game] [0mChecking move validity...
[32;1m[Board] [0mInitializing board...
[32;1m[Board] [0mLoading history file `championship/lizzie-iii-the-terminator/history.csv`...
[32;1m[Board] [0mLoaded 28 move(s).
[32;1m[Board] [0mLoading move file `championship/lizzie-iii-the-terminator/move.csv`...
[32;1m[Board] [0mWhite player is playing b7 to d7.
[32;1m[Board] [0m
[32;1m[Board] [0m    a b c d e f g h 
[32;1m[Board] [0m  -------------------
[32;1m[Board] [0m8 ||[30;1mr[0m| |[7;1m [0m|[30;1mQ[0m|[30;1mK[0m|[30;1mb[0m|[30;1mk[0m|[30;1mr[0m|| 8
[32;1m[Board] [0m  -------------------
[32;1m[Board] [0m7 || |[7;1m [0m| |[0;1mQ[0m|[30;1mp[0m|[7;1m [0m|[30;1mp[0m|[7;1m [0m|| 7
[32;1m[Board] [0m  -------------------
[32;1m[Board] [0m6 ||[30;1mp[0m| |[7;1m [0m|[30;1mp[0m|[0;1mp[0m| |[7;1m [0m| || 6
[32;1m[Board] [0m  -------------------
[32;1m[Board] [0m5 ||[0;1mp[0m|[7;1m [0m|[30;1mp[0m|[7;1m [0m| |[7;1m [0m| |[30;1mp[0m|| 5
[32;1m[Board] [0m  -------------------
[32;1m[Board] [0m4 ||[7;1m [0m| |[30;1mp[0m| |[7;1m [0m|[30;1mp[0m|[7;1m [0m|[0;1mp[0m|| 4
[32;1m[Board] [0m  -------------------
[32;1m[Board] [0m3 ||[0;1mk[0m|[7;1m [0m| |[7;1m [0m| |[7;1m [0m|[0;1mp[0m|[0;1mb[0m|| 3
[32;1m[Board] [0m  -------------------
[32;1m[Board] [0m2 ||[0;1mp[0m| |[7;1m [0m|[0;1mp[0m|[7;1m [0m|[0;1mp[0m|[7;1m [0m| || 2
[32;1m[Board] [0m  -------------------
[32;1m[Board] [0m1 ||[0;1mr[0m|[7;1m [0m|[0;1mb[0m|[7;1m [0m|[0;1mK[0m|[7;1m [0m|[0;1mk[0m|[0;1mr[0m|| 1
[32;1m[Board] [0m  -------------------
[32;1m[Board] [0m    a b c d e f g h
[32;1m[Board] [0m
[32;1m[Referee] [0mThis is the turn of the Black player...
[32;1m[Board] [0m[33;1m[WARNING][0m [5;1mBlack King in check![0m
[32;1m[Board] [0m[33;1m[WARNING][0m    Threatened by White Queen (d7)
[32;1m[Game] [0mPlayer's error code: 0
[32;1m[Game] [0mChecking move validity...
[32;1m[Board] [0mInitializing board...
[32;1m[Board] [0mLoading history file `championship/lizzie-iii-the-terminator/history.csv`...
[32;1m[Board] [0mLoaded 29 move(s).
[32;1m[Board] [0mLoading move file `championship/lizzie-iii-the-terminator/move.csv`...
[32;1m[Board] [0mBlack player is playing e8 to d7.
[32;1m[Board] [0m[31;1m[ERROR][0m Target position (d7) puts the King in check :(
[32;1m[Board] [0m[31;1m[ERROR][0m Black King (e8) cannot reach its destination (d7) :(
[32;1m[Referee] [0mInvalid move (code: -7) :(
[32;1m[Game] [0mBlack player has lost on illegal move.
