[32;1m[Board] [0mInitializing board...
[32;1m[Board] [0m
[32;1m[Board] [0m    a b c d e f g h 
[32;1m[Board] [0m  -------------------
[32;1m[Board] [0m8 ||[30;1mr[0m|[30;1mk[0m|[30;1mb[0m|[30;1mQ[0m|[30;1mK[0m|[30;1mb[0m|[30;1mk[0m|[30;1mr[0m|| 8
[32;1m[Board] [0m  -------------------
[32;1m[Board] [0m7 ||[30;1mp[0m|[30;1mp[0m|[30;1mp[0m|[30;1mp[0m|[30;1mp[0m|[30;1mp[0m|[30;1mp[0m|[30;1mp[0m|| 7
[32;1m[Board] [0m  -------------------
[32;1m[Board] [0m6 ||[7;1m [0m| |[7;1m [0m| |[7;1m [0m| |[7;1m [0m| || 6
[32;1m[Board] [0m  -------------------
[32;1m[Board] [0m5 || |[7;1m [0m| |[7;1m [0m| |[7;1m [0m| |[7;1m [0m|| 5
[32;1m[Board] [0m  -------------------
[32;1m[Board] [0m4 ||[7;1m [0m| |[7;1m [0m| |[7;1m [0m| |[7;1m [0m| || 4
[32;1m[Board] [0m  -------------------
[32;1m[Board] [0m3 || |[7;1m [0m| |[7;1m [0m| |[7;1m [0m| |[7;1m [0m|| 3
[32;1m[Board] [0m  -------------------
[32;1m[Board] [0m2 ||[0;1mp[0m|[0;1mp[0m|[0;1mp[0m|[0;1mp[0m|[0;1mp[0m|[0;1mp[0m|[0;1mp[0m|[0;1mp[0m|| 2
[32;1m[Board] [0m  -------------------
[32;1m[Board] [0m1 ||[0;1mr[0m|[0;1mk[0m|[0;1mb[0m|[0;1mQ[0m|[0;1mK[0m|[0;1mb[0m|[0;1mk[0m|[0;1mr[0m|| 1
[32;1m[Board] [0m  -------------------
[32;1m[Board] [0m    a b c d e f g h
[32;1m[Board] [0m
[32;1m[Referee] [0mThis is the turn of the White player...
Input file: championship/lizzie-iii-blueherring/history.csv
Output file: championship/lizzie-iii-blueherring/move.csv
We are playing as White
Move history:
8 | R N B Q K B N R 
7 | P P P P P P P P 
6 | _ _ _ _ _ _ _ _ 
5 | _ _ _ _ _ _ _ _ 
4 | _ _ _ _ _ _ _ _ 
3 | _ _ _ _ _ _ _ _ 
2 | P P P P P P P P 
1 | R N B Q K B N R 
-------------------
  | A B C D E F G H 

It is white's turn to play.
AI's move: g2g3
Move written: g2g3
[32;1m[Game] [0mPlayer's error code: 0
[32;1m[Game] [0mChecking move validity...
[32;1m[Board] [0mInitializing board...
[32;1m[Board] [0mLoading history file `championship/lizzie-iii-blueherring/history.csv`...
[32;1m[Board] [0mLoaded 0 move(s).
[32;1m[Board] [0mLoading move file `championship/lizzie-iii-blueherring/move.csv`...
[32;1m[Board] [0mWhite player is playing g2 to g3.
[32;1m[Board] [0m
[32;1m[Board] [0m    a b c d e f g h 
[32;1m[Board] [0m  -------------------
[32;1m[Board] [0m8 ||[30;1mr[0m|[30;1mk[0m|[30;1mb[0m|[30;1mQ[0m|[30;1mK[0m|[30;1mb[0m|[30;1mk[0m|[30;1mr[0m|| 8
[32;1m[Board] [0m  -------------------
[32;1m[Board] [0m7 ||[30;1mp[0m|[30;1mp[0m|[30;1mp[0m|[30;1mp[0m|[30;1mp[0m|[30;1mp[0m|[30;1mp[0m|[30;1mp[0m|| 7
[32;1m[Board] [0m  -------------------
[32;1m[Board] [0m6 ||[7;1m [0m| |[7;1m [0m| |[7;1m [0m| |[7;1m [0m| || 6
[32;1m[Board] [0m  -------------------
[32;1m[Board] [0m5 || |[7;1m [0m| |[7;1m [0m| |[7;1m [0m| |[7;1m [0m|| 5
[32;1m[Board] [0m  -------------------
[32;1m[Board] [0m4 ||[7;1m [0m| |[7;1m [0m| |[7;1m [0m| |[7;1m [0m| || 4
[32;1m[Board] [0m  -------------------
[32;1m[Board] [0m3 || |[7;1m [0m| |[7;1m [0m| |[7;1m [0m|[0;1mp[0m|[7;1m [0m|| 3
[32;1m[Board] [0m  -------------------
[32;1m[Board] [0m2 ||[0;1mp[0m|[0;1mp[0m|[0;1mp[0m|[0;1mp[0m|[0;1mp[0m|[0;1mp[0m|[7;1m [0m|[0;1mp[0m|| 2
[32;1m[Board] [0m  -------------------
[32;1m[Board] [0m1 ||[0;1mr[0m|[0;1mk[0m|[0;1mb[0m|[0;1mQ[0m|[0;1mK[0m|[0;1mb[0m|[0;1mk[0m|[0;1mr[0m|| 1
[32;1m[Board] [0m  -------------------
[32;1m[Board] [0m    a b c d e f g h
[32;1m[Board] [0m
[32;1m[Referee] [0mThis is the turn of the Black player...
[32;1m[Game] [0mPlayer's error code: 0
[32;1m[Game] [0mChecking move validity...
[32;1m[Board] [0mInitializing board...
[32;1m[Board] [0mLoading history file `championship/lizzie-iii-blueherring/history.csv`...
[32;1m[Board] [0mLoaded 1 move(s).
[32;1m[Board] [0mLoading move file `championship/lizzie-iii-blueherring/move.csv`...
[32;1m[Board] [0mBlack player is playing b8 to c6.
[32;1m[Board] [0m
[32;1m[Board] [0m    a b c d e f g h 
[32;1m[Board] [0m  -------------------
[32;1m[Board] [0m8 ||[30;1mr[0m| |[30;1mb[0m|[30;1mQ[0m|[30;1mK[0m|[30;1mb[0m|[30;1mk[0m|[30;1mr[0m|| 8
[32;1m[Board] [0m  -------------------
[32;1m[Board] [0m7 ||[30;1mp[0m|[30;1mp[0m|[30;1mp[0m|[30;1mp[0m|[30;1mp[0m|[30;1mp[0m|[30;1mp[0m|[30;1mp[0m|| 7
[32;1m[Board] [0m  -------------------
[32;1m[Board] [0m6 ||[7;1m [0m| |[30;1mk[0m| |[7;1m [0m| |[7;1m [0m| || 6
[32;1m[Board] [0m  -------------------
[32;1m[Board] [0m5 || |[7;1m [0m| |[7;1m [0m| |[7;1m [0m| |[7;1m [0m|| 5
[32;1m[Board] [0m  -------------------
[32;1m[Board] [0m4 ||[7;1m [0m| |[7;1m [0m| |[7;1m [0m| |[7;1m [0m| || 4
[32;1m[Board] [0m  -------------------
[32;1m[Board] [0m3 || |[7;1m [0m| |[7;1m [0m| |[7;1m [0m|[0;1mp[0m|[7;1m [0m|| 3
[32;1m[Board] [0m  -------------------
[32;1m[Board] [0m2 ||[0;1mp[0m|[0;1mp[0m|[0;1mp[0m|[0;1mp[0m|[0;1mp[0m|[0;1mp[0m|[7;1m [0m|[0;1mp[0m|| 2
[32;1m[Board] [0m  -------------------
[32;1m[Board] [0m1 ||[0;1mr[0m|[0;1mk[0m|[0;1mb[0m|[0;1mQ[0m|[0;1mK[0m|[0;1mb[0m|[0;1mk[0m|[0;1mr[0m|| 1
[32;1m[Board] [0m  -------------------
[32;1m[Board] [0m    a b c d e f g h
[32;1m[Board] [0m
[32;1m[Referee] [0mThis is the turn of the White player...
Input file: championship/lizzie-iii-blueherring/history.csv
Output file: championship/lizzie-iii-blueherring/move.csv
Turn of: white
Succesful move
g2g3
8 | R N B Q K B N R 
7 | P P P P P P P P 
6 | _ _ _ _ _ _ _ _ 
5 | _ _ _ _ _ _ _ _ 
4 | _ _ _ _ _ _ _ _ 
3 | _ _ _ _ _ _ P _ 
2 | P P P P P P _ P 
1 | R N B Q K B N R 
-------------------
  | A B C D E F G H 

Turn of: black
Succesful move
b8c6
8 | R _ B Q K B N R 
7 | P P P P P P P P 
6 | _ _ N _ _ _ _ _ 
5 | _ _ _ _ _ _ _ _ 
4 | _ _ _ _ _ _ _ _ 
3 | _ _ _ _ _ _ P _ 
2 | P P P P P P _ P 
1 | R N B Q K B N R 
-------------------
  | A B C D E F G H 

We are playing as White
Move history:
g2g3
b8c6
8 | R _ B Q K B N R 
7 | P P P P P P P P 
6 | _ _ N _ _ _ _ _ 
5 | _ _ _ _ _ _ _ _ 
4 | _ _ _ _ _ _ _ _ 
3 | _ _ _ _ _ _ P _ 
2 | P P P P P P _ P 
1 | R N B Q K B N R 
-------------------
  | A B C D E F G H 

It is white's turn to play.
AI's move: d2d3
Move written: d2d3
[32;1m[Game] [0mPlayer's error code: 0
[32;1m[Game] [0mChecking move validity...
[32;1m[Board] [0mInitializing board...
[32;1m[Board] [0mLoading history file `championship/lizzie-iii-blueherring/history.csv`...
[32;1m[Board] [0mLoaded 2 move(s).
[32;1m[Board] [0mLoading move file `championship/lizzie-iii-blueherring/move.csv`...
[32;1m[Board] [0mWhite player is playing d2 to d3.
[32;1m[Board] [0m
[32;1m[Board] [0m    a b c d e f g h 
[32;1m[Board] [0m  -------------------
[32;1m[Board] [0m8 ||[30;1mr[0m| |[30;1mb[0m|[30;1mQ[0m|[30;1mK[0m|[30;1mb[0m|[30;1mk[0m|[30;1mr[0m|| 8
[32;1m[Board] [0m  -------------------
[32;1m[Board] [0m7 ||[30;1mp[0m|[30;1mp[0m|[30;1mp[0m|[30;1mp[0m|[30;1mp[0m|[30;1mp[0m|[30;1mp[0m|[30;1mp[0m|| 7
[32;1m[Board] [0m  -------------------
[32;1m[Board] [0m6 ||[7;1m [0m| |[30;1mk[0m| |[7;1m [0m| |[7;1m [0m| || 6
[32;1m[Board] [0m  -------------------
[32;1m[Board] [0m5 || |[7;1m [0m| |[7;1m [0m| |[7;1m [0m| |[7;1m [0m|| 5
[32;1m[Board] [0m  -------------------
[32;1m[Board] [0m4 ||[7;1m [0m| |[7;1m [0m| |[7;1m [0m| |[7;1m [0m| || 4
[32;1m[Board] [0m  -------------------
[32;1m[Board] [0m3 || |[7;1m [0m| |[0;1mp[0m| |[7;1m [0m|[0;1mp[0m|[7;1m [0m|| 3
[32;1m[Board] [0m  -------------------
[32;1m[Board] [0m2 ||[0;1mp[0m|[0;1mp[0m|[0;1mp[0m| |[0;1mp[0m|[0;1mp[0m|[7;1m [0m|[0;1mp[0m|| 2
[32;1m[Board] [0m  -------------------
[32;1m[Board] [0m1 ||[0;1mr[0m|[0;1mk[0m|[0;1mb[0m|[0;1mQ[0m|[0;1mK[0m|[0;1mb[0m|[0;1mk[0m|[0;1mr[0m|| 1
[32;1m[Board] [0m  -------------------
[32;1m[Board] [0m    a b c d e f g h
[32;1m[Board] [0m
[32;1m[Referee] [0mThis is the turn of the Black player...
[32;1m[Game] [0mPlayer's error code: 0
[32;1m[Game] [0mChecking move validity...
[32;1m[Board] [0mInitializing board...
[32;1m[Board] [0mLoading history file `championship/lizzie-iii-blueherring/history.csv`...
[32;1m[Board] [0mLoaded 3 move(s).
[32;1m[Board] [0mLoading move file `championship/lizzie-iii-blueherring/move.csv`...
[32;1m[Board] [0mBlack player is playing c6 to d4.
[32;1m[Board] [0m
[32;1m[Board] [0m    a b c d e f g h 
[32;1m[Board] [0m  -------------------
[32;1m[Board] [0m8 ||[30;1mr[0m| |[30;1mb[0m|[30;1mQ[0m|[30;1mK[0m|[30;1mb[0m|[30;1mk[0m|[30;1mr[0m|| 8
[32;1m[Board] [0m  -------------------
[32;1m[Board] [0m7 ||[30;1mp[0m|[30;1mp[0m|[30;1mp[0m|[30;1mp[0m|[30;1mp[0m|[30;1mp[0m|[30;1mp[0m|[30;1mp[0m|| 7
[32;1m[Board] [0m  -------------------
[32;1m[Board] [0m6 ||[7;1m [0m| |[7;1m [0m| |[7;1m [0m| |[7;1m [0m| || 6
[32;1m[Board] [0m  -------------------
[32;1m[Board] [0m5 || |[7;1m [0m| |[7;1m [0m| |[7;1m [0m| |[7;1m [0m|| 5
[32;1m[Board] [0m  -------------------
[32;1m[Board] [0m4 ||[7;1m [0m| |[7;1m [0m|[30;1mk[0m|[7;1m [0m| |[7;1m [0m| || 4
[32;1m[Board] [0m  -------------------
[32;1m[Board] [0m3 || |[7;1m [0m| |[0;1mp[0m| |[7;1m [0m|[0;1mp[0m|[7;1m [0m|| 3
[32;1m[Board] [0m  -------------------
[32;1m[Board] [0m2 ||[0;1mp[0m|[0;1mp[0m|[0;1mp[0m| |[0;1mp[0m|[0;1mp[0m|[7;1m [0m|[0;1mp[0m|| 2
[32;1m[Board] [0m  -------------------
[32;1m[Board] [0m1 ||[0;1mr[0m|[0;1mk[0m|[0;1mb[0m|[0;1mQ[0m|[0;1mK[0m|[0;1mb[0m|[0;1mk[0m|[0;1mr[0m|| 1
[32;1m[Board] [0m  -------------------
[32;1m[Board] [0m    a b c d e f g h
[32;1m[Board] [0m
[32;1m[Referee] [0mThis is the turn of the White player...
Input file: championship/lizzie-iii-blueherring/history.csv
Output file: championship/lizzie-iii-blueherring/move.csv
Turn of: white
Succesful move
g2g3
8 | R N B Q K B N R 
7 | P P P P P P P P 
6 | _ _ _ _ _ _ _ _ 
5 | _ _ _ _ _ _ _ _ 
4 | _ _ _ _ _ _ _ _ 
3 | _ _ _ _ _ _ P _ 
2 | P P P P P P _ P 
1 | R N B Q K B N R 
-------------------
  | A B C D E F G H 

Turn of: black
Succesful move
b8c6
8 | R _ B Q K B N R 
7 | P P P P P P P P 
6 | _ _ N _ _ _ _ _ 
5 | _ _ _ _ _ _ _ _ 
4 | _ _ _ _ _ _ _ _ 
3 | _ _ _ _ _ _ P _ 
2 | P P P P P P _ P 
1 | R N B Q K B N R 
-------------------
  | A B C D E F G H 

Turn of: white
Succesful move
d2d3
8 | R _ B Q K B N R 
7 | P P P P P P P P 
6 | _ _ N _ _ _ _ _ 
5 | _ _ _ _ _ _ _ _ 
4 | _ _ _ _ _ _ _ _ 
3 | _ _ _ P _ _ P _ 
2 | P P P _ P P _ P 
1 | R N B Q K B N R 
-------------------
  | A B C D E F G H 

Turn of: black
Succesful move
c6d4
8 | R _ B Q K B N R 
7 | P P P P P P P P 
6 | _ _ _ _ _ _ _ _ 
5 | _ _ _ _ _ _ _ _ 
4 | _ _ _ N _ _ _ _ 
3 | _ _ _ P _ _ P _ 
2 | P P P _ P P _ P 
1 | R N B Q K B N R 
-------------------
  | A B C D E F G H 

We are playing as White
Move history:
g2g3
b8c6
d2d3
c6d4
8 | R _ B Q K B N R 
7 | P P P P P P P P 
6 | _ _ _ _ _ _ _ _ 
5 | _ _ _ _ _ _ _ _ 
4 | _ _ _ N _ _ _ _ 
3 | _ _ _ P _ _ P _ 
2 | P P P _ P P _ P 
1 | R N B Q K B N R 
-------------------
  | A B C D E F G H 

It is white's turn to play.
AI's move: f2f4
Move written: f2f4
[32;1m[Game] [0mPlayer's error code: 0
[32;1m[Game] [0mChecking move validity...
[32;1m[Board] [0mInitializing board...
[32;1m[Board] [0mLoading history file `championship/lizzie-iii-blueherring/history.csv`...
[32;1m[Board] [0mLoaded 4 move(s).
[32;1m[Board] [0mLoading move file `championship/lizzie-iii-blueherring/move.csv`...
[32;1m[Board] [0mWhite player is playing f2 to f4.
[32;1m[Board] [0m
[32;1m[Board] [0m    a b c d e f g h 
[32;1m[Board] [0m  -------------------
[32;1m[Board] [0m8 ||[30;1mr[0m| |[30;1mb[0m|[30;1mQ[0m|[30;1mK[0m|[30;1mb[0m|[30;1mk[0m|[30;1mr[0m|| 8
[32;1m[Board] [0m  -------------------
[32;1m[Board] [0m7 ||[30;1mp[0m|[30;1mp[0m|[30;1mp[0m|[30;1mp[0m|[30;1mp[0m|[30;1mp[0m|[30;1mp[0m|[30;1mp[0m|| 7
[32;1m[Board] [0m  -------------------
[32;1m[Board] [0m6 ||[7;1m [0m| |[7;1m [0m| |[7;1m [0m| |[7;1m [0m| || 6
[32;1m[Board] [0m  -------------------
[32;1m[Board] [0m5 || |[7;1m [0m| |[7;1m [0m| |[7;1m [0m| |[7;1m [0m|| 5
[32;1m[Board] [0m  -------------------
[32;1m[Board] [0m4 ||[7;1m [0m| |[7;1m [0m|[30;1mk[0m|[7;1m [0m|[0;1mp[0m|[7;1m [0m| || 4
[32;1m[Board] [0m  -------------------
[32;1m[Board] [0m3 || |[7;1m [0m| |[0;1mp[0m| |[7;1m [0m|[0;1mp[0m|[7;1m [0m|| 3
[32;1m[Board] [0m  -------------------
[32;1m[Board] [0m2 ||[0;1mp[0m|[0;1mp[0m|[0;1mp[0m| |[0;1mp[0m| |[7;1m [0m|[0;1mp[0m|| 2
[32;1m[Board] [0m  -------------------
[32;1m[Board] [0m1 ||[0;1mr[0m|[0;1mk[0m|[0;1mb[0m|[0;1mQ[0m|[0;1mK[0m|[0;1mb[0m|[0;1mk[0m|[0;1mr[0m|| 1
[32;1m[Board] [0m  -------------------
[32;1m[Board] [0m    a b c d e f g h
[32;1m[Board] [0m
[32;1m[Referee] [0mThis is the turn of the Black player...
[32;1m[Game] [0mPlayer's error code: 0
[32;1m[Game] [0mChecking move validity...
[32;1m[Board] [0mInitializing board...
[32;1m[Board] [0mLoading history file `championship/lizzie-iii-blueherring/history.csv`...
[32;1m[Board] [0mLoaded 5 move(s).
[32;1m[Board] [0mLoading move file `championship/lizzie-iii-blueherring/move.csv`...
[32;1m[Board] [0mBlack player is playing g8 to f6.
[32;1m[Board] [0m
[32;1m[Board] [0m    a b c d e f g h 
[32;1m[Board] [0m  -------------------
[32;1m[Board] [0m8 ||[30;1mr[0m| |[30;1mb[0m|[30;1mQ[0m|[30;1mK[0m|[30;1mb[0m|[7;1m [0m|[30;1mr[0m|| 8
[32;1m[Board] [0m  -------------------
[32;1m[Board] [0m7 ||[30;1mp[0m|[30;1mp[0m|[30;1mp[0m|[30;1mp[0m|[30;1mp[0m|[30;1mp[0m|[30;1mp[0m|[30;1mp[0m|| 7
[32;1m[Board] [0m  -------------------
[32;1m[Board] [0m6 ||[7;1m [0m| |[7;1m [0m| |[7;1m [0m|[30;1mk[0m|[7;1m [0m| || 6
[32;1m[Board] [0m  -------------------
[32;1m[Board] [0m5 || |[7;1m [0m| |[7;1m [0m| |[7;1m [0m| |[7;1m [0m|| 5
[32;1m[Board] [0m  -------------------
[32;1m[Board] [0m4 ||[7;1m [0m| |[7;1m [0m|[30;1mk[0m|[7;1m [0m|[0;1mp[0m|[7;1m [0m| || 4
[32;1m[Board] [0m  -------------------
[32;1m[Board] [0m3 || |[7;1m [0m| |[0;1mp[0m| |[7;1m [0m|[0;1mp[0m|[7;1m [0m|| 3
[32;1m[Board] [0m  -------------------
[32;1m[Board] [0m2 ||[0;1mp[0m|[0;1mp[0m|[0;1mp[0m| |[0;1mp[0m| |[7;1m [0m|[0;1mp[0m|| 2
[32;1m[Board] [0m  -------------------
[32;1m[Board] [0m1 ||[0;1mr[0m|[0;1mk[0m|[0;1mb[0m|[0;1mQ[0m|[0;1mK[0m|[0;1mb[0m|[0;1mk[0m|[0;1mr[0m|| 1
[32;1m[Board] [0m  -------------------
[32;1m[Board] [0m    a b c d e f g h
[32;1m[Board] [0m
[32;1m[Referee] [0mThis is the turn of the White player...
Input file: championship/lizzie-iii-blueherring/history.csv
Output file: championship/lizzie-iii-blueherring/move.csv
Turn of: white
Succesful move
g2g3
8 | R N B Q K B N R 
7 | P P P P P P P P 
6 | _ _ _ _ _ _ _ _ 
5 | _ _ _ _ _ _ _ _ 
4 | _ _ _ _ _ _ _ _ 
3 | _ _ _ _ _ _ P _ 
2 | P P P P P P _ P 
1 | R N B Q K B N R 
-------------------
  | A B C D E F G H 

Turn of: black
Succesful move
b8c6
8 | R _ B Q K B N R 
7 | P P P P P P P P 
6 | _ _ N _ _ _ _ _ 
5 | _ _ _ _ _ _ _ _ 
4 | _ _ _ _ _ _ _ _ 
3 | _ _ _ _ _ _ P _ 
2 | P P P P P P _ P 
1 | R N B Q K B N R 
-------------------
  | A B C D E F G H 

Turn of: white
Succesful move
d2d3
8 | R _ B Q K B N R 
7 | P P P P P P P P 
6 | _ _ N _ _ _ _ _ 
5 | _ _ _ _ _ _ _ _ 
4 | _ _ _ _ _ _ _ _ 
3 | _ _ _ P _ _ P _ 
2 | P P P _ P P _ P 
1 | R N B Q K B N R 
-------------------
  | A B C D E F G H 

Turn of: black
Succesful move
c6d4
8 | R _ B Q K B N R 
7 | P P P P P P P P 
6 | _ _ _ _ _ _ _ _ 
5 | _ _ _ _ _ _ _ _ 
4 | _ _ _ N _ _ _ _ 
3 | _ _ _ P _ _ P _ 
2 | P P P _ P P _ P 
1 | R N B Q K B N R 
-------------------
  | A B C D E F G H 

Turn of: white
Succesful move
f2f4
8 | R _ B Q K B N R 
7 | P P P P P P P P 
6 | _ _ _ _ _ _ _ _ 
5 | _ _ _ _ _ _ _ _ 
4 | _ _ _ N _ P _ _ 
3 | _ _ _ P _ _ P _ 
2 | P P P _ P _ _ P 
1 | R N B Q K B N R 
-------------------
  | A B C D E F G H 

Turn of: black
Succesful move
g8f6
8 | R _ B Q K B _ R 
7 | P P P P P P P P 
6 | _ _ _ _ _ N _ _ 
5 | _ _ _ _ _ _ _ _ 
4 | _ _ _ N _ P _ _ 
3 | _ _ _ P _ _ P _ 
2 | P P P _ P _ _ P 
1 | R N B Q K B N R 
-------------------
  | A B C D E F G H 

We are playing as White
Move history:
g2g3
b8c6
d2d3
c6d4
f2f4
g8f6
8 | R _ B Q K B _ R 
7 | P P P P P P P P 
6 | _ _ _ _ _ N _ _ 
5 | _ _ _ _ _ _ _ _ 
4 | _ _ _ N _ P _ _ 
3 | _ _ _ P _ _ P _ 
2 | P P P _ P _ _ P 
1 | R N B Q K B N R 
-------------------
  | A B C D E F G H 

It is white's turn to play.
AI's move: f4f5
Move written: f4f5
[32;1m[Game] [0mPlayer's error code: 0
[32;1m[Game] [0mChecking move validity...
[32;1m[Board] [0mInitializing board...
[32;1m[Board] [0mLoading history file `championship/lizzie-iii-blueherring/history.csv`...
[32;1m[Board] [0mLoaded 6 move(s).
[32;1m[Board] [0mLoading move file `championship/lizzie-iii-blueherring/move.csv`...
[32;1m[Board] [0mWhite player is playing f4 to f5.
[32;1m[Board] [0m
[32;1m[Board] [0m    a b c d e f g h 
[32;1m[Board] [0m  -------------------
[32;1m[Board] [0m8 ||[30;1mr[0m| |[30;1mb[0m|[30;1mQ[0m|[30;1mK[0m|[30;1mb[0m|[7;1m [0m|[30;1mr[0m|| 8
[32;1m[Board] [0m  -------------------
[32;1m[Board] [0m7 ||[30;1mp[0m|[30;1mp[0m|[30;1mp[0m|[30;1mp[0m|[30;1mp[0m|[30;1mp[0m|[30;1mp[0m|[30;1mp[0m|| 7
[32;1m[Board] [0m  -------------------
[32;1m[Board] [0m6 ||[7;1m [0m| |[7;1m [0m| |[7;1m [0m|[30;1mk[0m|[7;1m [0m| || 6
[32;1m[Board] [0m  -------------------
[32;1m[Board] [0m5 || |[7;1m [0m| |[7;1m [0m| |[0;1mp[0m| |[7;1m [0m|| 5
[32;1m[Board] [0m  -------------------
[32;1m[Board] [0m4 ||[7;1m [0m| |[7;1m [0m|[30;1mk[0m|[7;1m [0m| |[7;1m [0m| || 4
[32;1m[Board] [0m  -------------------
[32;1m[Board] [0m3 || |[7;1m [0m| |[0;1mp[0m| |[7;1m [0m|[0;1mp[0m|[7;1m [0m|| 3
[32;1m[Board] [0m  -------------------
[32;1m[Board] [0m2 ||[0;1mp[0m|[0;1mp[0m|[0;1mp[0m| |[0;1mp[0m| |[7;1m [0m|[0;1mp[0m|| 2
[32;1m[Board] [0m  -------------------
[32;1m[Board] [0m1 ||[0;1mr[0m|[0;1mk[0m|[0;1mb[0m|[0;1mQ[0m|[0;1mK[0m|[0;1mb[0m|[0;1mk[0m|[0;1mr[0m|| 1
[32;1m[Board] [0m  -------------------
[32;1m[Board] [0m    a b c d e f g h
[32;1m[Board] [0m
[32;1m[Referee] [0mThis is the turn of the Black player...
[32;1m[Game] [0mPlayer's error code: 0
[32;1m[Game] [0mChecking move validity...
[32;1m[Board] [0mInitializing board...
[32;1m[Board] [0mLoading history file `championship/lizzie-iii-blueherring/history.csv`...
[32;1m[Board] [0mLoaded 7 move(s).
[32;1m[Board] [0mLoading move file `championship/lizzie-iii-blueherring/move.csv`...
[32;1m[Board] [0mBlack player is playing d4 to f5.
[32;1m[Board] [0m[5;1mBlack Knight is taking White Pawn.[0m
[32;1m[Board] [0m
[32;1m[Board] [0m    a b c d e f g h 
[32;1m[Board] [0m  -------------------
[32;1m[Board] [0m8 ||[30;1mr[0m| |[30;1mb[0m|[30;1mQ[0m|[30;1mK[0m|[30;1mb[0m|[7;1m [0m|[30;1mr[0m|| 8
[32;1m[Board] [0m  -------------------
[32;1m[Board] [0m7 ||[30;1mp[0m|[30;1mp[0m|[30;1mp[0m|[30;1mp[0m|[30;1mp[0m|[30;1mp[0m|[30;1mp[0m|[30;1mp[0m|| 7
[32;1m[Board] [0m  -------------------
[32;1m[Board] [0m6 ||[7;1m [0m| |[7;1m [0m| |[7;1m [0m|[30;1mk[0m|[7;1m [0m| || 6
[32;1m[Board] [0m  -------------------
[32;1m[Board] [0m5 || |[7;1m [0m| |[7;1m [0m| |[30;1mk[0m| |[7;1m [0m|| 5
[32;1m[Board] [0m  -------------------
[32;1m[Board] [0m4 ||[7;1m [0m| |[7;1m [0m| |[7;1m [0m| |[7;1m [0m| || 4
[32;1m[Board] [0m  -------------------
[32;1m[Board] [0m3 || |[7;1m [0m| |[0;1mp[0m| |[7;1m [0m|[0;1mp[0m|[7;1m [0m|| 3
[32;1m[Board] [0m  -------------------
[32;1m[Board] [0m2 ||[0;1mp[0m|[0;1mp[0m|[0;1mp[0m| |[0;1mp[0m| |[7;1m [0m|[0;1mp[0m|| 2
[32;1m[Board] [0m  -------------------
[32;1m[Board] [0m1 ||[0;1mr[0m|[0;1mk[0m|[0;1mb[0m|[0;1mQ[0m|[0;1mK[0m|[0;1mb[0m|[0;1mk[0m|[0;1mr[0m|| 1
[32;1m[Board] [0m  -------------------
[32;1m[Board] [0m    a b c d e f g h
[32;1m[Board] [0m
[32;1m[Referee] [0mThis is the turn of the White player...
Input file: championship/lizzie-iii-blueherring/history.csv
Output file: championship/lizzie-iii-blueherring/move.csv
Turn of: white
Succesful move
g2g3
8 | R N B Q K B N R 
7 | P P P P P P P P 
6 | _ _ _ _ _ _ _ _ 
5 | _ _ _ _ _ _ _ _ 
4 | _ _ _ _ _ _ _ _ 
3 | _ _ _ _ _ _ P _ 
2 | P P P P P P _ P 
1 | R N B Q K B N R 
-------------------
  | A B C D E F G H 

Turn of: black
Succesful move
b8c6
8 | R _ B Q K B N R 
7 | P P P P P P P P 
6 | _ _ N _ _ _ _ _ 
5 | _ _ _ _ _ _ _ _ 
4 | _ _ _ _ _ _ _ _ 
3 | _ _ _ _ _ _ P _ 
2 | P P P P P P _ P 
1 | R N B Q K B N R 
-------------------
  | A B C D E F G H 

Turn of: white
Succesful move
d2d3
8 | R _ B Q K B N R 
7 | P P P P P P P P 
6 | _ _ N _ _ _ _ _ 
5 | _ _ _ _ _ _ _ _ 
4 | _ _ _ _ _ _ _ _ 
3 | _ _ _ P _ _ P _ 
2 | P P P _ P P _ P 
1 | R N B Q K B N R 
-------------------
  | A B C D E F G H 

Turn of: black
Succesful move
c6d4
8 | R _ B Q K B N R 
7 | P P P P P P P P 
6 | _ _ _ _ _ _ _ _ 
5 | _ _ _ _ _ _ _ _ 
4 | _ _ _ N _ _ _ _ 
3 | _ _ _ P _ _ P _ 
2 | P P P _ P P _ P 
1 | R N B Q K B N R 
-------------------
  | A B C D E F G H 

Turn of: white
Succesful move
f2f4
8 | R _ B Q K B N R 
7 | P P P P P P P P 
6 | _ _ _ _ _ _ _ _ 
5 | _ _ _ _ _ _ _ _ 
4 | _ _ _ N _ P _ _ 
3 | _ _ _ P _ _ P _ 
2 | P P P _ P _ _ P 
1 | R N B Q K B N R 
-------------------
  | A B C D E F G H 

Turn of: black
Succesful move
g8f6
8 | R _ B Q K B _ R 
7 | P P P P P P P P 
6 | _ _ _ _ _ N _ _ 
5 | _ _ _ _ _ _ _ _ 
4 | _ _ _ N _ P _ _ 
3 | _ _ _ P _ _ P _ 
2 | P P P _ P _ _ P 
1 | R N B Q K B N R 
-------------------
  | A B C D E F G H 

Turn of: white
Succesful move
f4f5
8 | R _ B Q K B _ R 
7 | P P P P P P P P 
6 | _ _ _ _ _ N _ _ 
5 | _ _ _ _ _ P _ _ 
4 | _ _ _ N _ _ _ _ 
3 | _ _ _ P _ _ P _ 
2 | P P P _ P _ _ P 
1 | R N B Q K B N R 
-------------------
  | A B C D E F G H 

Turn of: black
Succesful move
d4f5
8 | R _ B Q K B _ R 
7 | P P P P P P P P 
6 | _ _ _ _ _ N _ _ 
5 | _ _ _ _ _ N _ _ 
4 | _ _ _ _ _ _ _ _ 
3 | _ _ _ P _ _ P _ 
2 | P P P _ P _ _ P 
1 | R N B Q K B N R 
-------------------
  | A B C D E F G H 

We are playing as White
Move history:
g2g3
b8c6
d2d3
c6d4
f2f4
g8f6
f4f5
d4f5
8 | R _ B Q K B _ R 
7 | P P P P P P P P 
6 | _ _ _ _ _ N _ _ 
5 | _ _ _ _ _ N _ _ 
4 | _ _ _ _ _ _ _ _ 
3 | _ _ _ P _ _ P _ 
2 | P P P _ P _ _ P 
1 | R N B Q K B N R 
-------------------
  | A B C D E F G H 

It is white's turn to play.
AI's move: b1a3
Move written: b1a3
[32;1m[Game] [0mPlayer's error code: 0
[32;1m[Game] [0mChecking move validity...
[32;1m[Board] [0mInitializing board...
[32;1m[Board] [0mLoading history file `championship/lizzie-iii-blueherring/history.csv`...
[32;1m[Board] [0mLoaded 8 move(s).
[32;1m[Board] [0mLoading move file `championship/lizzie-iii-blueherring/move.csv`...
[32;1m[Board] [0mWhite player is playing b1 to a3.
[32;1m[Board] [0m
[32;1m[Board] [0m    a b c d e f g h 
[32;1m[Board] [0m  -------------------
[32;1m[Board] [0m8 ||[30;1mr[0m| |[30;1mb[0m|[30;1mQ[0m|[30;1mK[0m|[30;1mb[0m|[7;1m [0m|[30;1mr[0m|| 8
[32;1m[Board] [0m  -------------------
[32;1m[Board] [0m7 ||[30;1mp[0m|[30;1mp[0m|[30;1mp[0m|[30;1mp[0m|[30;1mp[0m|[30;1mp[0m|[30;1mp[0m|[30;1mp[0m|| 7
[32;1m[Board] [0m  -------------------
[32;1m[Board] [0m6 ||[7;1m [0m| |[7;1m [0m| |[7;1m [0m|[30;1mk[0m|[7;1m [0m| || 6
[32;1m[Board] [0m  -------------------
[32;1m[Board] [0m5 || |[7;1m [0m| |[7;1m [0m| |[30;1mk[0m| |[7;1m [0m|| 5
[32;1m[Board] [0m  -------------------
[32;1m[Board] [0m4 ||[7;1m [0m| |[7;1m [0m| |[7;1m [0m| |[7;1m [0m| || 4
[32;1m[Board] [0m  -------------------
[32;1m[Board] [0m3 ||[0;1mk[0m|[7;1m [0m| |[0;1mp[0m| |[7;1m [0m|[0;1mp[0m|[7;1m [0m|| 3
[32;1m[Board] [0m  -------------------
[32;1m[Board] [0m2 ||[0;1mp[0m|[0;1mp[0m|[0;1mp[0m| |[0;1mp[0m| |[7;1m [0m|[0;1mp[0m|| 2
[32;1m[Board] [0m  -------------------
[32;1m[Board] [0m1 ||[0;1mr[0m|[7;1m [0m|[0;1mb[0m|[0;1mQ[0m|[0;1mK[0m|[0;1mb[0m|[0;1mk[0m|[0;1mr[0m|| 1
[32;1m[Board] [0m  -------------------
[32;1m[Board] [0m    a b c d e f g h
[32;1m[Board] [0m
[32;1m[Referee] [0mThis is the turn of the Black player...
[32;1m[Game] [0mPlayer's error code: 0
[32;1m[Game] [0mChecking move validity...
[32;1m[Board] [0mInitializing board...
[32;1m[Board] [0mLoading history file `championship/lizzie-iii-blueherring/history.csv`...
[32;1m[Board] [0mLoaded 9 move(s).
[32;1m[Board] [0mLoading move file `championship/lizzie-iii-blueherring/move.csv`...
[32;1m[Board] [0mBlack player is playing f5 to d4.
[32;1m[Board] [0m
[32;1m[Board] [0m    a b c d e f g h 
[32;1m[Board] [0m  -------------------
[32;1m[Board] [0m8 ||[30;1mr[0m| |[30;1mb[0m|[30;1mQ[0m|[30;1mK[0m|[30;1mb[0m|[7;1m [0m|[30;1mr[0m|| 8
[32;1m[Board] [0m  -------------------
[32;1m[Board] [0m7 ||[30;1mp[0m|[30;1mp[0m|[30;1mp[0m|[30;1mp[0m|[30;1mp[0m|[30;1mp[0m|[30;1mp[0m|[30;1mp[0m|| 7
[32;1m[Board] [0m  -------------------
[32;1m[Board] [0m6 ||[7;1m [0m| |[7;1m [0m| |[7;1m [0m|[30;1mk[0m|[7;1m [0m| || 6
[32;1m[Board] [0m  -------------------
[32;1m[Board] [0m5 || |[7;1m [0m| |[7;1m [0m| |[7;1m [0m| |[7;1m [0m|| 5
[32;1m[Board] [0m  -------------------
[32;1m[Board] [0m4 ||[7;1m [0m| |[7;1m [0m|[30;1mk[0m|[7;1m [0m| |[7;1m [0m| || 4
[32;1m[Board] [0m  -------------------
[32;1m[Board] [0m3 ||[0;1mk[0m|[7;1m [0m| |[0;1mp[0m| |[7;1m [0m|[0;1mp[0m|[7;1m [0m|| 3
[32;1m[Board] [0m  -------------------
[32;1m[Board] [0m2 ||[0;1mp[0m|[0;1mp[0m|[0;1mp[0m| |[0;1mp[0m| |[7;1m [0m|[0;1mp[0m|| 2
[32;1m[Board] [0m  -------------------
[32;1m[Board] [0m1 ||[0;1mr[0m|[7;1m [0m|[0;1mb[0m|[0;1mQ[0m|[0;1mK[0m|[0;1mb[0m|[0;1mk[0m|[0;1mr[0m|| 1
[32;1m[Board] [0m  -------------------
[32;1m[Board] [0m    a b c d e f g h
[32;1m[Board] [0m
[32;1m[Referee] [0mThis is the turn of the White player...
Input file: championship/lizzie-iii-blueherring/history.csv
Output file: championship/lizzie-iii-blueherring/move.csv
Turn of: white
Succesful move
g2g3
8 | R N B Q K B N R 
7 | P P P P P P P P 
6 | _ _ _ _ _ _ _ _ 
5 | _ _ _ _ _ _ _ _ 
4 | _ _ _ _ _ _ _ _ 
3 | _ _ _ _ _ _ P _ 
2 | P P P P P P _ P 
1 | R N B Q K B N R 
-------------------
  | A B C D E F G H 

Turn of: black
Succesful move
b8c6
8 | R _ B Q K B N R 
7 | P P P P P P P P 
6 | _ _ N _ _ _ _ _ 
5 | _ _ _ _ _ _ _ _ 
4 | _ _ _ _ _ _ _ _ 
3 | _ _ _ _ _ _ P _ 
2 | P P P P P P _ P 
1 | R N B Q K B N R 
-------------------
  | A B C D E F G H 

Turn of: white
Succesful move
d2d3
8 | R _ B Q K B N R 
7 | P P P P P P P P 
6 | _ _ N _ _ _ _ _ 
5 | _ _ _ _ _ _ _ _ 
4 | _ _ _ _ _ _ _ _ 
3 | _ _ _ P _ _ P _ 
2 | P P P _ P P _ P 
1 | R N B Q K B N R 
-------------------
  | A B C D E F G H 

Turn of: black
Succesful move
c6d4
8 | R _ B Q K B N R 
7 | P P P P P P P P 
6 | _ _ _ _ _ _ _ _ 
5 | _ _ _ _ _ _ _ _ 
4 | _ _ _ N _ _ _ _ 
3 | _ _ _ P _ _ P _ 
2 | P P P _ P P _ P 
1 | R N B Q K B N R 
-------------------
  | A B C D E F G H 

Turn of: white
Succesful move
f2f4
8 | R _ B Q K B N R 
7 | P P P P P P P P 
6 | _ _ _ _ _ _ _ _ 
5 | _ _ _ _ _ _ _ _ 
4 | _ _ _ N _ P _ _ 
3 | _ _ _ P _ _ P _ 
2 | P P P _ P _ _ P 
1 | R N B Q K B N R 
-------------------
  | A B C D E F G H 

Turn of: black
Succesful move
g8f6
8 | R _ B Q K B _ R 
7 | P P P P P P P P 
6 | _ _ _ _ _ N _ _ 
5 | _ _ _ _ _ _ _ _ 
4 | _ _ _ N _ P _ _ 
3 | _ _ _ P _ _ P _ 
2 | P P P _ P _ _ P 
1 | R N B Q K B N R 
-------------------
  | A B C D E F G H 

Turn of: white
Succesful move
f4f5
8 | R _ B Q K B _ R 
7 | P P P P P P P P 
6 | _ _ _ _ _ N _ _ 
5 | _ _ _ _ _ P _ _ 
4 | _ _ _ N _ _ _ _ 
3 | _ _ _ P _ _ P _ 
2 | P P P _ P _ _ P 
1 | R N B Q K B N R 
-------------------
  | A B C D E F G H 

Turn of: black
Succesful move
d4f5
8 | R _ B Q K B _ R 
7 | P P P P P P P P 
6 | _ _ _ _ _ N _ _ 
5 | _ _ _ _ _ N _ _ 
4 | _ _ _ _ _ _ _ _ 
3 | _ _ _ P _ _ P _ 
2 | P P P _ P _ _ P 
1 | R N B Q K B N R 
-------------------
  | A B C D E F G H 

Turn of: white
Succesful move
b1a3
8 | R _ B Q K B _ R 
7 | P P P P P P P P 
6 | _ _ _ _ _ N _ _ 
5 | _ _ _ _ _ N _ _ 
4 | _ _ _ _ _ _ _ _ 
3 | N _ _ P _ _ P _ 
2 | P P P _ P _ _ P 
1 | R _ B Q K B N R 
-------------------
  | A B C D E F G H 

Turn of: black
Succesful move
f5d4
8 | R _ B Q K B _ R 
7 | P P P P P P P P 
6 | _ _ _ _ _ N _ _ 
5 | _ _ _ _ _ _ _ _ 
4 | _ _ _ N _ _ _ _ 
3 | N _ _ P _ _ P _ 
2 | P P P _ P _ _ P 
1 | R _ B Q K B N R 
-------------------
  | A B C D E F G H 

We are playing as White
Move history:
g2g3
b8c6
d2d3
c6d4
f2f4
g8f6
f4f5
d4f5
b1a3
f5d4
8 | R _ B Q K B _ R 
7 | P P P P P P P P 
6 | _ _ _ _ _ N _ _ 
5 | _ _ _ _ _ _ _ _ 
4 | _ _ _ N _ _ _ _ 
3 | N _ _ P _ _ P _ 
2 | P P P _ P _ _ P 
1 | R _ B Q K B N R 
-------------------
  | A B C D E F G H 

It is white's turn to play.
AI's move: h2h4
Move written: h2h4
[32;1m[Game] [0mPlayer's error code: 0
[32;1m[Game] [0mChecking move validity...
[32;1m[Board] [0mInitializing board...
[32;1m[Board] [0mLoading history file `championship/lizzie-iii-blueherring/history.csv`...
[32;1m[Board] [0mLoaded 10 move(s).
[32;1m[Board] [0mLoading move file `championship/lizzie-iii-blueherring/move.csv`...
[32;1m[Board] [0mWhite player is playing h2 to h4.
[32;1m[Board] [0m
[32;1m[Board] [0m    a b c d e f g h 
[32;1m[Board] [0m  -------------------
[32;1m[Board] [0m8 ||[30;1mr[0m| |[30;1mb[0m|[30;1mQ[0m|[30;1mK[0m|[30;1mb[0m|[7;1m [0m|[30;1mr[0m|| 8
[32;1m[Board] [0m  -------------------
[32;1m[Board] [0m7 ||[30;1mp[0m|[30;1mp[0m|[30;1mp[0m|[30;1mp[0m|[30;1mp[0m|[30;1mp[0m|[30;1mp[0m|[30;1mp[0m|| 7
[32;1m[Board] [0m  -------------------
[32;1m[Board] [0m6 ||[7;1m [0m| |[7;1m [0m| |[7;1m [0m|[30;1mk[0m|[7;1m [0m| || 6
[32;1m[Board] [0m  -------------------
[32;1m[Board] [0m5 || |[7;1m [0m| |[7;1m [0m| |[7;1m [0m| |[7;1m [0m|| 5
[32;1m[Board] [0m  -------------------
[32;1m[Board] [0m4 ||[7;1m [0m| |[7;1m [0m|[30;1mk[0m|[7;1m [0m| |[7;1m [0m|[0;1mp[0m|| 4
[32;1m[Board] [0m  -------------------
[32;1m[Board] [0m3 ||[0;1mk[0m|[7;1m [0m| |[0;1mp[0m| |[7;1m [0m|[0;1mp[0m|[7;1m [0m|| 3
[32;1m[Board] [0m  -------------------
[32;1m[Board] [0m2 ||[0;1mp[0m|[0;1mp[0m|[0;1mp[0m| |[0;1mp[0m| |[7;1m [0m| || 2
[32;1m[Board] [0m  -------------------
[32;1m[Board] [0m1 ||[0;1mr[0m|[7;1m [0m|[0;1mb[0m|[0;1mQ[0m|[0;1mK[0m|[0;1mb[0m|[0;1mk[0m|[0;1mr[0m|| 1
[32;1m[Board] [0m  -------------------
[32;1m[Board] [0m    a b c d e f g h
[32;1m[Board] [0m
[32;1m[Referee] [0mThis is the turn of the Black player...
[32;1m[Game] [0mPlayer's error code: 0
[32;1m[Game] [0mChecking move validity...
[32;1m[Board] [0mInitializing board...
[32;1m[Board] [0mLoading history file `championship/lizzie-iii-blueherring/history.csv`...
[32;1m[Board] [0mLoaded 11 move(s).
[32;1m[Board] [0mLoading move file `championship/lizzie-iii-blueherring/move.csv`...
[32;1m[Board] [0mBlack player is playing f6 to d5.
[32;1m[Board] [0m
[32;1m[Board] [0m    a b c d e f g h 
[32;1m[Board] [0m  -------------------
[32;1m[Board] [0m8 ||[30;1mr[0m| |[30;1mb[0m|[30;1mQ[0m|[30;1mK[0m|[30;1mb[0m|[7;1m [0m|[30;1mr[0m|| 8
[32;1m[Board] [0m  -------------------
[32;1m[Board] [0m7 ||[30;1mp[0m|[30;1mp[0m|[30;1mp[0m|[30;1mp[0m|[30;1mp[0m|[30;1mp[0m|[30;1mp[0m|[30;1mp[0m|| 7
[32;1m[Board] [0m  -------------------
[32;1m[Board] [0m6 ||[7;1m [0m| |[7;1m [0m| |[7;1m [0m| |[7;1m [0m| || 6
[32;1m[Board] [0m  -------------------
[32;1m[Board] [0m5 || |[7;1m [0m| |[30;1mk[0m| |[7;1m [0m| |[7;1m [0m|| 5
[32;1m[Board] [0m  -------------------
[32;1m[Board] [0m4 ||[7;1m [0m| |[7;1m [0m|[30;1mk[0m|[7;1m [0m| |[7;1m [0m|[0;1mp[0m|| 4
[32;1m[Board] [0m  -------------------
[32;1m[Board] [0m3 ||[0;1mk[0m|[7;1m [0m| |[0;1mp[0m| |[7;1m [0m|[0;1mp[0m|[7;1m [0m|| 3
[32;1m[Board] [0m  -------------------
[32;1m[Board] [0m2 ||[0;1mp[0m|[0;1mp[0m|[0;1mp[0m| |[0;1mp[0m| |[7;1m [0m| || 2
[32;1m[Board] [0m  -------------------
[32;1m[Board] [0m1 ||[0;1mr[0m|[7;1m [0m|[0;1mb[0m|[0;1mQ[0m|[0;1mK[0m|[0;1mb[0m|[0;1mk[0m|[0;1mr[0m|| 1
[32;1m[Board] [0m  -------------------
[32;1m[Board] [0m    a b c d e f g h
[32;1m[Board] [0m
[32;1m[Referee] [0mThis is the turn of the White player...
Input file: championship/lizzie-iii-blueherring/history.csv
Output file: championship/lizzie-iii-blueherring/move.csv
Turn of: white
Succesful move
g2g3
8 | R N B Q K B N R 
7 | P P P P P P P P 
6 | _ _ _ _ _ _ _ _ 
5 | _ _ _ _ _ _ _ _ 
4 | _ _ _ _ _ _ _ _ 
3 | _ _ _ _ _ _ P _ 
2 | P P P P P P _ P 
1 | R N B Q K B N R 
-------------------
  | A B C D E F G H 

Turn of: black
Succesful move
b8c6
8 | R _ B Q K B N R 
7 | P P P P P P P P 
6 | _ _ N _ _ _ _ _ 
5 | _ _ _ _ _ _ _ _ 
4 | _ _ _ _ _ _ _ _ 
3 | _ _ _ _ _ _ P _ 
2 | P P P P P P _ P 
1 | R N B Q K B N R 
-------------------
  | A B C D E F G H 

Turn of: white
Succesful move
d2d3
8 | R _ B Q K B N R 
7 | P P P P P P P P 
6 | _ _ N _ _ _ _ _ 
5 | _ _ _ _ _ _ _ _ 
4 | _ _ _ _ _ _ _ _ 
3 | _ _ _ P _ _ P _ 
2 | P P P _ P P _ P 
1 | R N B Q K B N R 
-------------------
  | A B C D E F G H 

Turn of: black
Succesful move
c6d4
8 | R _ B Q K B N R 
7 | P P P P P P P P 
6 | _ _ _ _ _ _ _ _ 
5 | _ _ _ _ _ _ _ _ 
4 | _ _ _ N _ _ _ _ 
3 | _ _ _ P _ _ P _ 
2 | P P P _ P P _ P 
1 | R N B Q K B N R 
-------------------
  | A B C D E F G H 

Turn of: white
Succesful move
f2f4
8 | R _ B Q K B N R 
7 | P P P P P P P P 
6 | _ _ _ _ _ _ _ _ 
5 | _ _ _ _ _ _ _ _ 
4 | _ _ _ N _ P _ _ 
3 | _ _ _ P _ _ P _ 
2 | P P P _ P _ _ P 
1 | R N B Q K B N R 
-------------------
  | A B C D E F G H 

Turn of: black
Succesful move
g8f6
8 | R _ B Q K B _ R 
7 | P P P P P P P P 
6 | _ _ _ _ _ N _ _ 
5 | _ _ _ _ _ _ _ _ 
4 | _ _ _ N _ P _ _ 
3 | _ _ _ P _ _ P _ 
2 | P P P _ P _ _ P 
1 | R N B Q K B N R 
-------------------
  | A B C D E F G H 

Turn of: white
Succesful move
f4f5
8 | R _ B Q K B _ R 
7 | P P P P P P P P 
6 | _ _ _ _ _ N _ _ 
5 | _ _ _ _ _ P _ _ 
4 | _ _ _ N _ _ _ _ 
3 | _ _ _ P _ _ P _ 
2 | P P P _ P _ _ P 
1 | R N B Q K B N R 
-------------------
  | A B C D E F G H 

Turn of: black
Succesful move
d4f5
8 | R _ B Q K B _ R 
7 | P P P P P P P P 
6 | _ _ _ _ _ N _ _ 
5 | _ _ _ _ _ N _ _ 
4 | _ _ _ _ _ _ _ _ 
3 | _ _ _ P _ _ P _ 
2 | P P P _ P _ _ P 
1 | R N B Q K B N R 
-------------------
  | A B C D E F G H 

Turn of: white
Succesful move
b1a3
8 | R _ B Q K B _ R 
7 | P P P P P P P P 
6 | _ _ _ _ _ N _ _ 
5 | _ _ _ _ _ N _ _ 
4 | _ _ _ _ _ _ _ _ 
3 | N _ _ P _ _ P _ 
2 | P P P _ P _ _ P 
1 | R _ B Q K B N R 
-------------------
  | A B C D E F G H 

Turn of: black
Succesful move
f5d4
8 | R _ B Q K B _ R 
7 | P P P P P P P P 
6 | _ _ _ _ _ N _ _ 
5 | _ _ _ _ _ _ _ _ 
4 | _ _ _ N _ _ _ _ 
3 | N _ _ P _ _ P _ 
2 | P P P _ P _ _ P 
1 | R _ B Q K B N R 
-------------------
  | A B C D E F G H 

Turn of: white
Succesful move
h2h4
8 | R _ B Q K B _ R 
7 | P P P P P P P P 
6 | _ _ _ _ _ N _ _ 
5 | _ _ _ _ _ _ _ _ 
4 | _ _ _ N _ _ _ P 
3 | N _ _ P _ _ P _ 
2 | P P P _ P _ _ _ 
1 | R _ B Q K B N R 
-------------------
  | A B C D E F G H 

Turn of: black
Succesful move
f6d5
8 | R _ B Q K B _ R 
7 | P P P P P P P P 
6 | _ _ _ _ _ _ _ _ 
5 | _ _ _ N _ _ _ _ 
4 | _ _ _ N _ _ _ P 
3 | N _ _ P _ _ P _ 
2 | P P P _ P _ _ _ 
1 | R _ B Q K B N R 
-------------------
  | A B C D E F G H 

We are playing as White
Move history:
g2g3
b8c6
d2d3
c6d4
f2f4
g8f6
f4f5
d4f5
b1a3
f5d4
h2h4
f6d5
8 | R _ B Q K B _ R 
7 | P P P P P P P P 
6 | _ _ _ _ _ _ _ _ 
5 | _ _ _ N _ _ _ _ 
4 | _ _ _ N _ _ _ P 
3 | N _ _ P _ _ P _ 
2 | P P P _ P _ _ _ 
1 | R _ B Q K B N R 
-------------------
  | A B C D E F G H 

It is white's turn to play.
AI's move: d1d2
Move written: d1d2
[32;1m[Game] [0mPlayer's error code: 0
[32;1m[Game] [0mChecking move validity...
[32;1m[Board] [0mInitializing board...
[32;1m[Board] [0mLoading history file `championship/lizzie-iii-blueherring/history.csv`...
[32;1m[Board] [0mLoaded 12 move(s).
[32;1m[Board] [0mLoading move file `championship/lizzie-iii-blueherring/move.csv`...
[32;1m[Board] [0mWhite player is playing d1 to d2.
[32;1m[Board] [0m
[32;1m[Board] [0m    a b c d e f g h 
[32;1m[Board] [0m  -------------------
[32;1m[Board] [0m8 ||[30;1mr[0m| |[30;1mb[0m|[30;1mQ[0m|[30;1mK[0m|[30;1mb[0m|[7;1m [0m|[30;1mr[0m|| 8
[32;1m[Board] [0m  -------------------
[32;1m[Board] [0m7 ||[30;1mp[0m|[30;1mp[0m|[30;1mp[0m|[30;1mp[0m|[30;1mp[0m|[30;1mp[0m|[30;1mp[0m|[30;1mp[0m|| 7
[32;1m[Board] [0m  -------------------
[32;1m[Board] [0m6 ||[7;1m [0m| |[7;1m [0m| |[7;1m [0m| |[7;1m [0m| || 6
[32;1m[Board] [0m  -------------------
[32;1m[Board] [0m5 || |[7;1m [0m| |[30;1mk[0m| |[7;1m [0m| |[7;1m [0m|| 5
[32;1m[Board] [0m  -------------------
[32;1m[Board] [0m4 ||[7;1m [0m| |[7;1m [0m|[30;1mk[0m|[7;1m [0m| |[7;1m [0m|[0;1mp[0m|| 4
[32;1m[Board] [0m  -------------------
[32;1m[Board] [0m3 ||[0;1mk[0m|[7;1m [0m| |[0;1mp[0m| |[7;1m [0m|[0;1mp[0m|[7;1m [0m|| 3
[32;1m[Board] [0m  -------------------
[32;1m[Board] [0m2 ||[0;1mp[0m|[0;1mp[0m|[0;1mp[0m|[0;1mQ[0m|[0;1mp[0m| |[7;1m [0m| || 2
[32;1m[Board] [0m  -------------------
[32;1m[Board] [0m1 ||[0;1mr[0m|[7;1m [0m|[0;1mb[0m|[7;1m [0m|[0;1mK[0m|[0;1mb[0m|[0;1mk[0m|[0;1mr[0m|| 1
[32;1m[Board] [0m  -------------------
[32;1m[Board] [0m    a b c d e f g h
[32;1m[Board] [0m
[32;1m[Referee] [0mThis is the turn of the Black player...
[32;1m[Game] [0mPlayer's error code: 0
[32;1m[Game] [0mChecking move validity...
[32;1m[Board] [0mInitializing board...
[32;1m[Board] [0mLoading history file `championship/lizzie-iii-blueherring/history.csv`...
[32;1m[Board] [0mLoaded 13 move(s).
[32;1m[Board] [0mLoading move file `championship/lizzie-iii-blueherring/move.csv`...
[32;1m[Board] [0mBlack player is playing d5 to b6.
[32;1m[Board] [0m
[32;1m[Board] [0m    a b c d e f g h 
[32;1m[Board] [0m  -------------------
[32;1m[Board] [0m8 ||[30;1mr[0m| |[30;1mb[0m|[30;1mQ[0m|[30;1mK[0m|[30;1mb[0m|[7;1m [0m|[30;1mr[0m|| 8
[32;1m[Board] [0m  -------------------
[32;1m[Board] [0m7 ||[30;1mp[0m|[30;1mp[0m|[30;1mp[0m|[30;1mp[0m|[30;1mp[0m|[30;1mp[0m|[30;1mp[0m|[30;1mp[0m|| 7
[32;1m[Board] [0m  -------------------
[32;1m[Board] [0m6 ||[7;1m [0m|[30;1mk[0m|[7;1m [0m| |[7;1m [0m| |[7;1m [0m| || 6
[32;1m[Board] [0m  -------------------
[32;1m[Board] [0m5 || |[7;1m [0m| |[7;1m [0m| |[7;1m [0m| |[7;1m [0m|| 5
[32;1m[Board] [0m  -------------------
[32;1m[Board] [0m4 ||[7;1m [0m| |[7;1m [0m|[30;1mk[0m|[7;1m [0m| |[7;1m [0m|[0;1mp[0m|| 4
[32;1m[Board] [0m  -------------------
[32;1m[Board] [0m3 ||[0;1mk[0m|[7;1m [0m| |[0;1mp[0m| |[7;1m [0m|[0;1mp[0m|[7;1m [0m|| 3
[32;1m[Board] [0m  -------------------
[32;1m[Board] [0m2 ||[0;1mp[0m|[0;1mp[0m|[0;1mp[0m|[0;1mQ[0m|[0;1mp[0m| |[7;1m [0m| || 2
[32;1m[Board] [0m  -------------------
[32;1m[Board] [0m1 ||[0;1mr[0m|[7;1m [0m|[0;1mb[0m|[7;1m [0m|[0;1mK[0m|[0;1mb[0m|[0;1mk[0m|[0;1mr[0m|| 1
[32;1m[Board] [0m  -------------------
[32;1m[Board] [0m    a b c d e f g h
[32;1m[Board] [0m
[32;1m[Referee] [0mThis is the turn of the White player...
Input file: championship/lizzie-iii-blueherring/history.csv
Output file: championship/lizzie-iii-blueherring/move.csv
Turn of: white
Succesful move
g2g3
8 | R N B Q K B N R 
7 | P P P P P P P P 
6 | _ _ _ _ _ _ _ _ 
5 | _ _ _ _ _ _ _ _ 
4 | _ _ _ _ _ _ _ _ 
3 | _ _ _ _ _ _ P _ 
2 | P P P P P P _ P 
1 | R N B Q K B N R 
-------------------
  | A B C D E F G H 

Turn of: black
Succesful move
b8c6
8 | R _ B Q K B N R 
7 | P P P P P P P P 
6 | _ _ N _ _ _ _ _ 
5 | _ _ _ _ _ _ _ _ 
4 | _ _ _ _ _ _ _ _ 
3 | _ _ _ _ _ _ P _ 
2 | P P P P P P _ P 
1 | R N B Q K B N R 
-------------------
  | A B C D E F G H 

Turn of: white
Succesful move
d2d3
8 | R _ B Q K B N R 
7 | P P P P P P P P 
6 | _ _ N _ _ _ _ _ 
5 | _ _ _ _ _ _ _ _ 
4 | _ _ _ _ _ _ _ _ 
3 | _ _ _ P _ _ P _ 
2 | P P P _ P P _ P 
1 | R N B Q K B N R 
-------------------
  | A B C D E F G H 

Turn of: black
Succesful move
c6d4
8 | R _ B Q K B N R 
7 | P P P P P P P P 
6 | _ _ _ _ _ _ _ _ 
5 | _ _ _ _ _ _ _ _ 
4 | _ _ _ N _ _ _ _ 
3 | _ _ _ P _ _ P _ 
2 | P P P _ P P _ P 
1 | R N B Q K B N R 
-------------------
  | A B C D E F G H 

Turn of: white
Succesful move
f2f4
8 | R _ B Q K B N R 
7 | P P P P P P P P 
6 | _ _ _ _ _ _ _ _ 
5 | _ _ _ _ _ _ _ _ 
4 | _ _ _ N _ P _ _ 
3 | _ _ _ P _ _ P _ 
2 | P P P _ P _ _ P 
1 | R N B Q K B N R 
-------------------
  | A B C D E F G H 

Turn of: black
Succesful move
g8f6
8 | R _ B Q K B _ R 
7 | P P P P P P P P 
6 | _ _ _ _ _ N _ _ 
5 | _ _ _ _ _ _ _ _ 
4 | _ _ _ N _ P _ _ 
3 | _ _ _ P _ _ P _ 
2 | P P P _ P _ _ P 
1 | R N B Q K B N R 
-------------------
  | A B C D E F G H 

Turn of: white
Succesful move
f4f5
8 | R _ B Q K B _ R 
7 | P P P P P P P P 
6 | _ _ _ _ _ N _ _ 
5 | _ _ _ _ _ P _ _ 
4 | _ _ _ N _ _ _ _ 
3 | _ _ _ P _ _ P _ 
2 | P P P _ P _ _ P 
1 | R N B Q K B N R 
-------------------
  | A B C D E F G H 

Turn of: black
Succesful move
d4f5
8 | R _ B Q K B _ R 
7 | P P P P P P P P 
6 | _ _ _ _ _ N _ _ 
5 | _ _ _ _ _ N _ _ 
4 | _ _ _ _ _ _ _ _ 
3 | _ _ _ P _ _ P _ 
2 | P P P _ P _ _ P 
1 | R N B Q K B N R 
-------------------
  | A B C D E F G H 

Turn of: white
Succesful move
b1a3
8 | R _ B Q K B _ R 
7 | P P P P P P P P 
6 | _ _ _ _ _ N _ _ 
5 | _ _ _ _ _ N _ _ 
4 | _ _ _ _ _ _ _ _ 
3 | N _ _ P _ _ P _ 
2 | P P P _ P _ _ P 
1 | R _ B Q K B N R 
-------------------
  | A B C D E F G H 

Turn of: black
Succesful move
f5d4
8 | R _ B Q K B _ R 
7 | P P P P P P P P 
6 | _ _ _ _ _ N _ _ 
5 | _ _ _ _ _ _ _ _ 
4 | _ _ _ N _ _ _ _ 
3 | N _ _ P _ _ P _ 
2 | P P P _ P _ _ P 
1 | R _ B Q K B N R 
-------------------
  | A B C D E F G H 

Turn of: white
Succesful move
h2h4
8 | R _ B Q K B _ R 
7 | P P P P P P P P 
6 | _ _ _ _ _ N _ _ 
5 | _ _ _ _ _ _ _ _ 
4 | _ _ _ N _ _ _ P 
3 | N _ _ P _ _ P _ 
2 | P P P _ P _ _ _ 
1 | R _ B Q K B N R 
-------------------
  | A B C D E F G H 

Turn of: black
Succesful move
f6d5
8 | R _ B Q K B _ R 
7 | P P P P P P P P 
6 | _ _ _ _ _ _ _ _ 
5 | _ _ _ N _ _ _ _ 
4 | _ _ _ N _ _ _ P 
3 | N _ _ P _ _ P _ 
2 | P P P _ P _ _ _ 
1 | R _ B Q K B N R 
-------------------
  | A B C D E F G H 

Turn of: white
Succesful move
d1d2
8 | R _ B Q K B _ R 
7 | P P P P P P P P 
6 | _ _ _ _ _ _ _ _ 
5 | _ _ _ N _ _ _ _ 
4 | _ _ _ N _ _ _ P 
3 | N _ _ P _ _ P _ 
2 | P P P Q P _ _ _ 
1 | R _ B _ K B N R 
-------------------
  | A B C D E F G H 

Turn of: black
Succesful move
d5b6
8 | R _ B Q K B _ R 
7 | P P P P P P P P 
6 | _ N _ _ _ _ _ _ 
5 | _ _ _ _ _ _ _ _ 
4 | _ _ _ N _ _ _ P 
3 | N _ _ P _ _ P _ 
2 | P P P Q P _ _ _ 
1 | R _ B _ K B N R 
-------------------
  | A B C D E F G H 

We are playing as White
Move history:
g2g3
b8c6
d2d3
c6d4
f2f4
g8f6
f4f5
d4f5
b1a3
f5d4
h2h4
f6d5
d1d2
d5b6
8 | R _ B Q K B _ R 
7 | P P P P P P P P 
6 | _ N _ _ _ _ _ _ 
5 | _ _ _ _ _ _ _ _ 
4 | _ _ _ N _ _ _ P 
3 | N _ _ P _ _ P _ 
2 | P P P Q P _ _ _ 
1 | R _ B _ K B N R 
-------------------
  | A B C D E F G H 

It is white's turn to play.
AI's move: d2c3
Move written: d2c3
[32;1m[Game] [0mPlayer's error code: 0
[32;1m[Game] [0mChecking move validity...
[32;1m[Board] [0mInitializing board...
[32;1m[Board] [0mLoading history file `championship/lizzie-iii-blueherring/history.csv`...
[32;1m[Board] [0mLoaded 14 move(s).
[32;1m[Board] [0mLoading move file `championship/lizzie-iii-blueherring/move.csv`...
[32;1m[Board] [0mWhite player is playing d2 to c3.
[32;1m[Board] [0m
[32;1m[Board] [0m    a b c d e f g h 
[32;1m[Board] [0m  -------------------
[32;1m[Board] [0m8 ||[30;1mr[0m| |[30;1mb[0m|[30;1mQ[0m|[30;1mK[0m|[30;1mb[0m|[7;1m [0m|[30;1mr[0m|| 8
[32;1m[Board] [0m  -------------------
[32;1m[Board] [0m7 ||[30;1mp[0m|[30;1mp[0m|[30;1mp[0m|[30;1mp[0m|[30;1mp[0m|[30;1mp[0m|[30;1mp[0m|[30;1mp[0m|| 7
[32;1m[Board] [0m  -------------------
[32;1m[Board] [0m6 ||[7;1m [0m|[30;1mk[0m|[7;1m [0m| |[7;1m [0m| |[7;1m [0m| || 6
[32;1m[Board] [0m  -------------------
[32;1m[Board] [0m5 || |[7;1m [0m| |[7;1m [0m| |[7;1m [0m| |[7;1m [0m|| 5
[32;1m[Board] [0m  -------------------
[32;1m[Board] [0m4 ||[7;1m [0m| |[7;1m [0m|[30;1mk[0m|[7;1m [0m| |[7;1m [0m|[0;1mp[0m|| 4
[32;1m[Board] [0m  -------------------
[32;1m[Board] [0m3 ||[0;1mk[0m|[7;1m [0m|[0;1mQ[0m|[0;1mp[0m| |[7;1m [0m|[0;1mp[0m|[7;1m [0m|| 3
[32;1m[Board] [0m  -------------------
[32;1m[Board] [0m2 ||[0;1mp[0m|[0;1mp[0m|[0;1mp[0m| |[0;1mp[0m| |[7;1m [0m| || 2
[32;1m[Board] [0m  -------------------
[32;1m[Board] [0m1 ||[0;1mr[0m|[7;1m [0m|[0;1mb[0m|[7;1m [0m|[0;1mK[0m|[0;1mb[0m|[0;1mk[0m|[0;1mr[0m|| 1
[32;1m[Board] [0m  -------------------
[32;1m[Board] [0m    a b c d e f g h
[32;1m[Board] [0m
[32;1m[Referee] [0mThis is the turn of the Black player...
[32;1m[Game] [0mPlayer's error code: 0
[32;1m[Game] [0mChecking move validity...
[32;1m[Board] [0mInitializing board...
[32;1m[Board] [0mLoading history file `championship/lizzie-iii-blueherring/history.csv`...
[32;1m[Board] [0mLoaded 15 move(s).
[32;1m[Board] [0mLoading move file `championship/lizzie-iii-blueherring/move.csv`...
[32;1m[Board] [0mBlack player is playing e7 to e5.
[32;1m[Board] [0m
[32;1m[Board] [0m    a b c d e f g h 
[32;1m[Board] [0m  -------------------
[32;1m[Board] [0m8 ||[30;1mr[0m| |[30;1mb[0m|[30;1mQ[0m|[30;1mK[0m|[30;1mb[0m|[7;1m [0m|[30;1mr[0m|| 8
[32;1m[Board] [0m  -------------------
[32;1m[Board] [0m7 ||[30;1mp[0m|[30;1mp[0m|[30;1mp[0m|[30;1mp[0m| |[30;1mp[0m|[30;1mp[0m|[30;1mp[0m|| 7
[32;1m[Board] [0m  -------------------
[32;1m[Board] [0m6 ||[7;1m [0m|[30;1mk[0m|[7;1m [0m| |[7;1m [0m| |[7;1m [0m| || 6
[32;1m[Board] [0m  -------------------
[32;1m[Board] [0m5 || |[7;1m [0m| |[7;1m [0m|[30;1mp[0m|[7;1m [0m| |[7;1m [0m|| 5
[32;1m[Board] [0m  -------------------
[32;1m[Board] [0m4 ||[7;1m [0m| |[7;1m [0m|[30;1mk[0m|[7;1m [0m| |[7;1m [0m|[0;1mp[0m|| 4
[32;1m[Board] [0m  -------------------
[32;1m[Board] [0m3 ||[0;1mk[0m|[7;1m [0m|[0;1mQ[0m|[0;1mp[0m| |[7;1m [0m|[0;1mp[0m|[7;1m [0m|| 3
[32;1m[Board] [0m  -------------------
[32;1m[Board] [0m2 ||[0;1mp[0m|[0;1mp[0m|[0;1mp[0m| |[0;1mp[0m| |[7;1m [0m| || 2
[32;1m[Board] [0m  -------------------
[32;1m[Board] [0m1 ||[0;1mr[0m|[7;1m [0m|[0;1mb[0m|[7;1m [0m|[0;1mK[0m|[0;1mb[0m|[0;1mk[0m|[0;1mr[0m|| 1
[32;1m[Board] [0m  -------------------
[32;1m[Board] [0m    a b c d e f g h
[32;1m[Board] [0m
[32;1m[Referee] [0mThis is the turn of the White player...
Input file: championship/lizzie-iii-blueherring/history.csv
Output file: championship/lizzie-iii-blueherring/move.csv
Turn of: white
Succesful move
g2g3
8 | R N B Q K B N R 
7 | P P P P P P P P 
6 | _ _ _ _ _ _ _ _ 
5 | _ _ _ _ _ _ _ _ 
4 | _ _ _ _ _ _ _ _ 
3 | _ _ _ _ _ _ P _ 
2 | P P P P P P _ P 
1 | R N B Q K B N R 
-------------------
  | A B C D E F G H 

Turn of: black
Succesful move
b8c6
8 | R _ B Q K B N R 
7 | P P P P P P P P 
6 | _ _ N _ _ _ _ _ 
5 | _ _ _ _ _ _ _ _ 
4 | _ _ _ _ _ _ _ _ 
3 | _ _ _ _ _ _ P _ 
2 | P P P P P P _ P 
1 | R N B Q K B N R 
-------------------
  | A B C D E F G H 

Turn of: white
Succesful move
d2d3
8 | R _ B Q K B N R 
7 | P P P P P P P P 
6 | _ _ N _ _ _ _ _ 
5 | _ _ _ _ _ _ _ _ 
4 | _ _ _ _ _ _ _ _ 
3 | _ _ _ P _ _ P _ 
2 | P P P _ P P _ P 
1 | R N B Q K B N R 
-------------------
  | A B C D E F G H 

Turn of: black
Succesful move
c6d4
8 | R _ B Q K B N R 
7 | P P P P P P P P 
6 | _ _ _ _ _ _ _ _ 
5 | _ _ _ _ _ _ _ _ 
4 | _ _ _ N _ _ _ _ 
3 | _ _ _ P _ _ P _ 
2 | P P P _ P P _ P 
1 | R N B Q K B N R 
-------------------
  | A B C D E F G H 

Turn of: white
Succesful move
f2f4
8 | R _ B Q K B N R 
7 | P P P P P P P P 
6 | _ _ _ _ _ _ _ _ 
5 | _ _ _ _ _ _ _ _ 
4 | _ _ _ N _ P _ _ 
3 | _ _ _ P _ _ P _ 
2 | P P P _ P _ _ P 
1 | R N B Q K B N R 
-------------------
  | A B C D E F G H 

Turn of: black
Succesful move
g8f6
8 | R _ B Q K B _ R 
7 | P P P P P P P P 
6 | _ _ _ _ _ N _ _ 
5 | _ _ _ _ _ _ _ _ 
4 | _ _ _ N _ P _ _ 
3 | _ _ _ P _ _ P _ 
2 | P P P _ P _ _ P 
1 | R N B Q K B N R 
-------------------
  | A B C D E F G H 

Turn of: white
Succesful move
f4f5
8 | R _ B Q K B _ R 
7 | P P P P P P P P 
6 | _ _ _ _ _ N _ _ 
5 | _ _ _ _ _ P _ _ 
4 | _ _ _ N _ _ _ _ 
3 | _ _ _ P _ _ P _ 
2 | P P P _ P _ _ P 
1 | R N B Q K B N R 
-------------------
  | A B C D E F G H 

Turn of: black
Succesful move
d4f5
8 | R _ B Q K B _ R 
7 | P P P P P P P P 
6 | _ _ _ _ _ N _ _ 
5 | _ _ _ _ _ N _ _ 
4 | _ _ _ _ _ _ _ _ 
3 | _ _ _ P _ _ P _ 
2 | P P P _ P _ _ P 
1 | R N B Q K B N R 
-------------------
  | A B C D E F G H 

Turn of: white
Succesful move
b1a3
8 | R _ B Q K B _ R 
7 | P P P P P P P P 
6 | _ _ _ _ _ N _ _ 
5 | _ _ _ _ _ N _ _ 
4 | _ _ _ _ _ _ _ _ 
3 | N _ _ P _ _ P _ 
2 | P P P _ P _ _ P 
1 | R _ B Q K B N R 
-------------------
  | A B C D E F G H 

Turn of: black
Succesful move
f5d4
8 | R _ B Q K B _ R 
7 | P P P P P P P P 
6 | _ _ _ _ _ N _ _ 
5 | _ _ _ _ _ _ _ _ 
4 | _ _ _ N _ _ _ _ 
3 | N _ _ P _ _ P _ 
2 | P P P _ P _ _ P 
1 | R _ B Q K B N R 
-------------------
  | A B C D E F G H 

Turn of: white
Succesful move
h2h4
8 | R _ B Q K B _ R 
7 | P P P P P P P P 
6 | _ _ _ _ _ N _ _ 
5 | _ _ _ _ _ _ _ _ 
4 | _ _ _ N _ _ _ P 
3 | N _ _ P _ _ P _ 
2 | P P P _ P _ _ _ 
1 | R _ B Q K B N R 
-------------------
  | A B C D E F G H 

Turn of: black
Succesful move
f6d5
8 | R _ B Q K B _ R 
7 | P P P P P P P P 
6 | _ _ _ _ _ _ _ _ 
5 | _ _ _ N _ _ _ _ 
4 | _ _ _ N _ _ _ P 
3 | N _ _ P _ _ P _ 
2 | P P P _ P _ _ _ 
1 | R _ B Q K B N R 
-------------------
  | A B C D E F G H 

Turn of: white
Succesful move
d1d2
8 | R _ B Q K B _ R 
7 | P P P P P P P P 
6 | _ _ _ _ _ _ _ _ 
5 | _ _ _ N _ _ _ _ 
4 | _ _ _ N _ _ _ P 
3 | N _ _ P _ _ P _ 
2 | P P P Q P _ _ _ 
1 | R _ B _ K B N R 
-------------------
  | A B C D E F G H 

Turn of: black
Succesful move
d5b6
8 | R _ B Q K B _ R 
7 | P P P P P P P P 
6 | _ N _ _ _ _ _ _ 
5 | _ _ _ _ _ _ _ _ 
4 | _ _ _ N _ _ _ P 
3 | N _ _ P _ _ P _ 
2 | P P P Q P _ _ _ 
1 | R _ B _ K B N R 
-------------------
  | A B C D E F G H 

Turn of: white
Succesful move
d2c3
8 | R _ B Q K B _ R 
7 | P P P P P P P P 
6 | _ N _ _ _ _ _ _ 
5 | _ _ _ _ _ _ _ _ 
4 | _ _ _ N _ _ _ P 
3 | N _ Q P _ _ P _ 
2 | P P P _ P _ _ _ 
1 | R _ B _ K B N R 
-------------------
  | A B C D E F G H 

Turn of: black
Succesful move
e7e5
8 | R _ B Q K B _ R 
7 | P P P P _ P P P 
6 | _ N _ _ _ _ _ _ 
5 | _ _ _ _ P _ _ _ 
4 | _ _ _ N _ _ _ P 
3 | N _ Q P _ _ P _ 
2 | P P P _ P _ _ _ 
1 | R _ B _ K B N R 
-------------------
  | A B C D E F G H 

We are playing as White
Move history:
g2g3
b8c6
d2d3
c6d4
f2f4
g8f6
f4f5
d4f5
b1a3
f5d4
h2h4
f6d5
d1d2
d5b6
d2c3
e7e5
8 | R _ B Q K B _ R 
7 | P P P P _ P P P 
6 | _ N _ _ _ _ _ _ 
5 | _ _ _ _ P _ _ _ 
4 | _ _ _ N _ _ _ P 
3 | N _ Q P _ _ P _ 
2 | P P P _ P _ _ _ 
1 | R _ B _ K B N R 
-------------------
  | A B C D E F G H 

It is white's turn to play.
AI's move: h4h5
Move written: h4h5
[32;1m[Game] [0mPlayer's error code: 0
[32;1m[Game] [0mChecking move validity...
[32;1m[Board] [0mInitializing board...
[32;1m[Board] [0mLoading history file `championship/lizzie-iii-blueherring/history.csv`...
[32;1m[Board] [0mLoaded 16 move(s).
[32;1m[Board] [0mLoading move file `championship/lizzie-iii-blueherring/move.csv`...
[32;1m[Board] [0mWhite player is playing h4 to h5.
[32;1m[Board] [0m
[32;1m[Board] [0m    a b c d e f g h 
[32;1m[Board] [0m  -------------------
[32;1m[Board] [0m8 ||[30;1mr[0m| |[30;1mb[0m|[30;1mQ[0m|[30;1mK[0m|[30;1mb[0m|[7;1m [0m|[30;1mr[0m|| 8
[32;1m[Board] [0m  -------------------
[32;1m[Board] [0m7 ||[30;1mp[0m|[30;1mp[0m|[30;1mp[0m|[30;1mp[0m| |[30;1mp[0m|[30;1mp[0m|[30;1mp[0m|| 7
[32;1m[Board] [0m  -------------------
[32;1m[Board] [0m6 ||[7;1m [0m|[30;1mk[0m|[7;1m [0m| |[7;1m [0m| |[7;1m [0m| || 6
[32;1m[Board] [0m  -------------------
[32;1m[Board] [0m5 || |[7;1m [0m| |[7;1m [0m|[30;1mp[0m|[7;1m [0m| |[0;1mp[0m|| 5
[32;1m[Board] [0m  -------------------
[32;1m[Board] [0m4 ||[7;1m [0m| |[7;1m [0m|[30;1mk[0m|[7;1m [0m| |[7;1m [0m| || 4
[32;1m[Board] [0m  -------------------
[32;1m[Board] [0m3 ||[0;1mk[0m|[7;1m [0m|[0;1mQ[0m|[0;1mp[0m| |[7;1m [0m|[0;1mp[0m|[7;1m [0m|| 3
[32;1m[Board] [0m  -------------------
[32;1m[Board] [0m2 ||[0;1mp[0m|[0;1mp[0m|[0;1mp[0m| |[0;1mp[0m| |[7;1m [0m| || 2
[32;1m[Board] [0m  -------------------
[32;1m[Board] [0m1 ||[0;1mr[0m|[7;1m [0m|[0;1mb[0m|[7;1m [0m|[0;1mK[0m|[0;1mb[0m|[0;1mk[0m|[0;1mr[0m|| 1
[32;1m[Board] [0m  -------------------
[32;1m[Board] [0m    a b c d e f g h
[32;1m[Board] [0m
[32;1m[Referee] [0mThis is the turn of the Black player...
[32;1m[Game] [0mPlayer's error code: 0
[32;1m[Game] [0mChecking move validity...
[32;1m[Board] [0mInitializing board...
[32;1m[Board] [0mLoading history file `championship/lizzie-iii-blueherring/history.csv`...
[32;1m[Board] [0mLoaded 17 move(s).
[32;1m[Board] [0mLoading move file `championship/lizzie-iii-blueherring/move.csv`...
[32;1m[Board] [0mBlack player is playing b6 to d5.
[32;1m[Board] [0m
[32;1m[Board] [0m    a b c d e f g h 
[32;1m[Board] [0m  -------------------
[32;1m[Board] [0m8 ||[30;1mr[0m| |[30;1mb[0m|[30;1mQ[0m|[30;1mK[0m|[30;1mb[0m|[7;1m [0m|[30;1mr[0m|| 8
[32;1m[Board] [0m  -------------------
[32;1m[Board] [0m7 ||[30;1mp[0m|[30;1mp[0m|[30;1mp[0m|[30;1mp[0m| |[30;1mp[0m|[30;1mp[0m|[30;1mp[0m|| 7
[32;1m[Board] [0m  -------------------
[32;1m[Board] [0m6 ||[7;1m [0m| |[7;1m [0m| |[7;1m [0m| |[7;1m [0m| || 6
[32;1m[Board] [0m  -------------------
[32;1m[Board] [0m5 || |[7;1m [0m| |[30;1mk[0m|[30;1mp[0m|[7;1m [0m| |[0;1mp[0m|| 5
[32;1m[Board] [0m  -------------------
[32;1m[Board] [0m4 ||[7;1m [0m| |[7;1m [0m|[30;1mk[0m|[7;1m [0m| |[7;1m [0m| || 4
[32;1m[Board] [0m  -------------------
[32;1m[Board] [0m3 ||[0;1mk[0m|[7;1m [0m|[0;1mQ[0m|[0;1mp[0m| |[7;1m [0m|[0;1mp[0m|[7;1m [0m|| 3
[32;1m[Board] [0m  -------------------
[32;1m[Board] [0m2 ||[0;1mp[0m|[0;1mp[0m|[0;1mp[0m| |[0;1mp[0m| |[7;1m [0m| || 2
[32;1m[Board] [0m  -------------------
[32;1m[Board] [0m1 ||[0;1mr[0m|[7;1m [0m|[0;1mb[0m|[7;1m [0m|[0;1mK[0m|[0;1mb[0m|[0;1mk[0m|[0;1mr[0m|| 1
[32;1m[Board] [0m  -------------------
[32;1m[Board] [0m    a b c d e f g h
[32;1m[Board] [0m
[32;1m[Referee] [0mThis is the turn of the White player...
Input file: championship/lizzie-iii-blueherring/history.csv
Output file: championship/lizzie-iii-blueherring/move.csv
Turn of: white
Succesful move
g2g3
8 | R N B Q K B N R 
7 | P P P P P P P P 
6 | _ _ _ _ _ _ _ _ 
5 | _ _ _ _ _ _ _ _ 
4 | _ _ _ _ _ _ _ _ 
3 | _ _ _ _ _ _ P _ 
2 | P P P P P P _ P 
1 | R N B Q K B N R 
-------------------
  | A B C D E F G H 

Turn of: black
Succesful move
b8c6
8 | R _ B Q K B N R 
7 | P P P P P P P P 
6 | _ _ N _ _ _ _ _ 
5 | _ _ _ _ _ _ _ _ 
4 | _ _ _ _ _ _ _ _ 
3 | _ _ _ _ _ _ P _ 
2 | P P P P P P _ P 
1 | R N B Q K B N R 
-------------------
  | A B C D E F G H 

Turn of: white
Succesful move
d2d3
8 | R _ B Q K B N R 
7 | P P P P P P P P 
6 | _ _ N _ _ _ _ _ 
5 | _ _ _ _ _ _ _ _ 
4 | _ _ _ _ _ _ _ _ 
3 | _ _ _ P _ _ P _ 
2 | P P P _ P P _ P 
1 | R N B Q K B N R 
-------------------
  | A B C D E F G H 

Turn of: black
Succesful move
c6d4
8 | R _ B Q K B N R 
7 | P P P P P P P P 
6 | _ _ _ _ _ _ _ _ 
5 | _ _ _ _ _ _ _ _ 
4 | _ _ _ N _ _ _ _ 
3 | _ _ _ P _ _ P _ 
2 | P P P _ P P _ P 
1 | R N B Q K B N R 
-------------------
  | A B C D E F G H 

Turn of: white
Succesful move
f2f4
8 | R _ B Q K B N R 
7 | P P P P P P P P 
6 | _ _ _ _ _ _ _ _ 
5 | _ _ _ _ _ _ _ _ 
4 | _ _ _ N _ P _ _ 
3 | _ _ _ P _ _ P _ 
2 | P P P _ P _ _ P 
1 | R N B Q K B N R 
-------------------
  | A B C D E F G H 

Turn of: black
Succesful move
g8f6
8 | R _ B Q K B _ R 
7 | P P P P P P P P 
6 | _ _ _ _ _ N _ _ 
5 | _ _ _ _ _ _ _ _ 
4 | _ _ _ N _ P _ _ 
3 | _ _ _ P _ _ P _ 
2 | P P P _ P _ _ P 
1 | R N B Q K B N R 
-------------------
  | A B C D E F G H 

Turn of: white
Succesful move
f4f5
8 | R _ B Q K B _ R 
7 | P P P P P P P P 
6 | _ _ _ _ _ N _ _ 
5 | _ _ _ _ _ P _ _ 
4 | _ _ _ N _ _ _ _ 
3 | _ _ _ P _ _ P _ 
2 | P P P _ P _ _ P 
1 | R N B Q K B N R 
-------------------
  | A B C D E F G H 

Turn of: black
Succesful move
d4f5
8 | R _ B Q K B _ R 
7 | P P P P P P P P 
6 | _ _ _ _ _ N _ _ 
5 | _ _ _ _ _ N _ _ 
4 | _ _ _ _ _ _ _ _ 
3 | _ _ _ P _ _ P _ 
2 | P P P _ P _ _ P 
1 | R N B Q K B N R 
-------------------
  | A B C D E F G H 

Turn of: white
Succesful move
b1a3
8 | R _ B Q K B _ R 
7 | P P P P P P P P 
6 | _ _ _ _ _ N _ _ 
5 | _ _ _ _ _ N _ _ 
4 | _ _ _ _ _ _ _ _ 
3 | N _ _ P _ _ P _ 
2 | P P P _ P _ _ P 
1 | R _ B Q K B N R 
-------------------
  | A B C D E F G H 

Turn of: black
Succesful move
f5d4
8 | R _ B Q K B _ R 
7 | P P P P P P P P 
6 | _ _ _ _ _ N _ _ 
5 | _ _ _ _ _ _ _ _ 
4 | _ _ _ N _ _ _ _ 
3 | N _ _ P _ _ P _ 
2 | P P P _ P _ _ P 
1 | R _ B Q K B N R 
-------------------
  | A B C D E F G H 

Turn of: white
Succesful move
h2h4
8 | R _ B Q K B _ R 
7 | P P P P P P P P 
6 | _ _ _ _ _ N _ _ 
5 | _ _ _ _ _ _ _ _ 
4 | _ _ _ N _ _ _ P 
3 | N _ _ P _ _ P _ 
2 | P P P _ P _ _ _ 
1 | R _ B Q K B N R 
-------------------
  | A B C D E F G H 

Turn of: black
Succesful move
f6d5
8 | R _ B Q K B _ R 
7 | P P P P P P P P 
6 | _ _ _ _ _ _ _ _ 
5 | _ _ _ N _ _ _ _ 
4 | _ _ _ N _ _ _ P 
3 | N _ _ P _ _ P _ 
2 | P P P _ P _ _ _ 
1 | R _ B Q K B N R 
-------------------
  | A B C D E F G H 

Turn of: white
Succesful move
d1d2
8 | R _ B Q K B _ R 
7 | P P P P P P P P 
6 | _ _ _ _ _ _ _ _ 
5 | _ _ _ N _ _ _ _ 
4 | _ _ _ N _ _ _ P 
3 | N _ _ P _ _ P _ 
2 | P P P Q P _ _ _ 
1 | R _ B _ K B N R 
-------------------
  | A B C D E F G H 

Turn of: black
Succesful move
d5b6
8 | R _ B Q K B _ R 
7 | P P P P P P P P 
6 | _ N _ _ _ _ _ _ 
5 | _ _ _ _ _ _ _ _ 
4 | _ _ _ N _ _ _ P 
3 | N _ _ P _ _ P _ 
2 | P P P Q P _ _ _ 
1 | R _ B _ K B N R 
-------------------
  | A B C D E F G H 

Turn of: white
Succesful move
d2c3
8 | R _ B Q K B _ R 
7 | P P P P P P P P 
6 | _ N _ _ _ _ _ _ 
5 | _ _ _ _ _ _ _ _ 
4 | _ _ _ N _ _ _ P 
3 | N _ Q P _ _ P _ 
2 | P P P _ P _ _ _ 
1 | R _ B _ K B N R 
-------------------
  | A B C D E F G H 

Turn of: black
Succesful move
e7e5
8 | R _ B Q K B _ R 
7 | P P P P _ P P P 
6 | _ N _ _ _ _ _ _ 
5 | _ _ _ _ P _ _ _ 
4 | _ _ _ N _ _ _ P 
3 | N _ Q P _ _ P _ 
2 | P P P _ P _ _ _ 
1 | R _ B _ K B N R 
-------------------
  | A B C D E F G H 

Turn of: white
Succesful move
h4h5
8 | R _ B Q K B _ R 
7 | P P P P _ P P P 
6 | _ N _ _ _ _ _ _ 
5 | _ _ _ _ P _ _ P 
4 | _ _ _ N _ _ _ _ 
3 | N _ Q P _ _ P _ 
2 | P P P _ P _ _ _ 
1 | R _ B _ K B N R 
-------------------
  | A B C D E F G H 

Turn of: black
Succesful move
b6d5
8 | R _ B Q K B _ R 
7 | P P P P _ P P P 
6 | _ _ _ _ _ _ _ _ 
5 | _ _ _ N P _ _ P 
4 | _ _ _ N _ _ _ _ 
3 | N _ Q P _ _ P _ 
2 | P P P _ P _ _ _ 
1 | R _ B _ K B N R 
-------------------
  | A B C D E F G H 

We are playing as White
Move history:
g2g3
b8c6
d2d3
c6d4
f2f4
g8f6
f4f5
d4f5
b1a3
f5d4
h2h4
f6d5
d1d2
d5b6
d2c3
e7e5
h4h5
b6d5
8 | R _ B Q K B _ R 
7 | P P P P _ P P P 
6 | _ _ _ _ _ _ _ _ 
5 | _ _ _ N P _ _ P 
4 | _ _ _ N _ _ _ _ 
3 | N _ Q P _ _ P _ 
2 | P P P _ P _ _ _ 
1 | R _ B _ K B N R 
-------------------
  | A B C D E F G H 

It is white's turn to play.
AI's move: c3d2
Move written: c3d2
[32;1m[Game] [0mPlayer's error code: 0
[32;1m[Game] [0mChecking move validity...
[32;1m[Board] [0mInitializing board...
[32;1m[Board] [0mLoading history file `championship/lizzie-iii-blueherring/history.csv`...
[32;1m[Board] [0mLoaded 18 move(s).
[32;1m[Board] [0mLoading move file `championship/lizzie-iii-blueherring/move.csv`...
[32;1m[Board] [0mWhite player is playing c3 to d2.
[32;1m[Board] [0m
[32;1m[Board] [0m    a b c d e f g h 
[32;1m[Board] [0m  -------------------
[32;1m[Board] [0m8 ||[30;1mr[0m| |[30;1mb[0m|[30;1mQ[0m|[30;1mK[0m|[30;1mb[0m|[7;1m [0m|[30;1mr[0m|| 8
[32;1m[Board] [0m  -------------------
[32;1m[Board] [0m7 ||[30;1mp[0m|[30;1mp[0m|[30;1mp[0m|[30;1mp[0m| |[30;1mp[0m|[30;1mp[0m|[30;1mp[0m|| 7
[32;1m[Board] [0m  -------------------
[32;1m[Board] [0m6 ||[7;1m [0m| |[7;1m [0m| |[7;1m [0m| |[7;1m [0m| || 6
[32;1m[Board] [0m  -------------------
[32;1m[Board] [0m5 || |[7;1m [0m| |[30;1mk[0m|[30;1mp[0m|[7;1m [0m| |[0;1mp[0m|| 5
[32;1m[Board] [0m  -------------------
[32;1m[Board] [0m4 ||[7;1m [0m| |[7;1m [0m|[30;1mk[0m|[7;1m [0m| |[7;1m [0m| || 4
[32;1m[Board] [0m  -------------------
[32;1m[Board] [0m3 ||[0;1mk[0m|[7;1m [0m| |[0;1mp[0m| |[7;1m [0m|[0;1mp[0m|[7;1m [0m|| 3
[32;1m[Board] [0m  -------------------
[32;1m[Board] [0m2 ||[0;1mp[0m|[0;1mp[0m|[0;1mp[0m|[0;1mQ[0m|[0;1mp[0m| |[7;1m [0m| || 2
[32;1m[Board] [0m  -------------------
[32;1m[Board] [0m1 ||[0;1mr[0m|[7;1m [0m|[0;1mb[0m|[7;1m [0m|[0;1mK[0m|[0;1mb[0m|[0;1mk[0m|[0;1mr[0m|| 1
[32;1m[Board] [0m  -------------------
[32;1m[Board] [0m    a b c d e f g h
[32;1m[Board] [0m
[32;1m[Referee] [0mThis is the turn of the Black player...
[32;1m[Game] [0mPlayer's error code: 0
[32;1m[Game] [0mChecking move validity...
[32;1m[Board] [0mInitializing board...
[32;1m[Board] [0mLoading history file `championship/lizzie-iii-blueherring/history.csv`...
[32;1m[Board] [0mLoaded 19 move(s).
[32;1m[Board] [0mLoading move file `championship/lizzie-iii-blueherring/move.csv`...
[32;1m[Board] [0mBlack player is playing f8 to b4.
[32;1m[Board] [0m
[32;1m[Board] [0m    a b c d e f g h 
[32;1m[Board] [0m  -------------------
[32;1m[Board] [0m8 ||[30;1mr[0m| |[30;1mb[0m|[30;1mQ[0m|[30;1mK[0m| |[7;1m [0m|[30;1mr[0m|| 8
[32;1m[Board] [0m  -------------------
[32;1m[Board] [0m7 ||[30;1mp[0m|[30;1mp[0m|[30;1mp[0m|[30;1mp[0m| |[30;1mp[0m|[30;1mp[0m|[30;1mp[0m|| 7
[32;1m[Board] [0m  -------------------
[32;1m[Board] [0m6 ||[7;1m [0m| |[7;1m [0m| |[7;1m [0m| |[7;1m [0m| || 6
[32;1m[Board] [0m  -------------------
[32;1m[Board] [0m5 || |[7;1m [0m| |[30;1mk[0m|[30;1mp[0m|[7;1m [0m| |[0;1mp[0m|| 5
[32;1m[Board] [0m  -------------------
[32;1m[Board] [0m4 ||[7;1m [0m|[30;1mb[0m|[7;1m [0m|[30;1mk[0m|[7;1m [0m| |[7;1m [0m| || 4
[32;1m[Board] [0m  -------------------
[32;1m[Board] [0m3 ||[0;1mk[0m|[7;1m [0m| |[0;1mp[0m| |[7;1m [0m|[0;1mp[0m|[7;1m [0m|| 3
[32;1m[Board] [0m  -------------------
[32;1m[Board] [0m2 ||[0;1mp[0m|[0;1mp[0m|[0;1mp[0m|[0;1mQ[0m|[0;1mp[0m| |[7;1m [0m| || 2
[32;1m[Board] [0m  -------------------
[32;1m[Board] [0m1 ||[0;1mr[0m|[7;1m [0m|[0;1mb[0m|[7;1m [0m|[0;1mK[0m|[0;1mb[0m|[0;1mk[0m|[0;1mr[0m|| 1
[32;1m[Board] [0m  -------------------
[32;1m[Board] [0m    a b c d e f g h
[32;1m[Board] [0m
[32;1m[Referee] [0mThis is the turn of the White player...
Input file: championship/lizzie-iii-blueherring/history.csv
Output file: championship/lizzie-iii-blueherring/move.csv
Turn of: white
Succesful move
g2g3
8 | R N B Q K B N R 
7 | P P P P P P P P 
6 | _ _ _ _ _ _ _ _ 
5 | _ _ _ _ _ _ _ _ 
4 | _ _ _ _ _ _ _ _ 
3 | _ _ _ _ _ _ P _ 
2 | P P P P P P _ P 
1 | R N B Q K B N R 
-------------------
  | A B C D E F G H 

Turn of: black
Succesful move
b8c6
8 | R _ B Q K B N R 
7 | P P P P P P P P 
6 | _ _ N _ _ _ _ _ 
5 | _ _ _ _ _ _ _ _ 
4 | _ _ _ _ _ _ _ _ 
3 | _ _ _ _ _ _ P _ 
2 | P P P P P P _ P 
1 | R N B Q K B N R 
-------------------
  | A B C D E F G H 

Turn of: white
Succesful move
d2d3
8 | R _ B Q K B N R 
7 | P P P P P P P P 
6 | _ _ N _ _ _ _ _ 
5 | _ _ _ _ _ _ _ _ 
4 | _ _ _ _ _ _ _ _ 
3 | _ _ _ P _ _ P _ 
2 | P P P _ P P _ P 
1 | R N B Q K B N R 
-------------------
  | A B C D E F G H 

Turn of: black
Succesful move
c6d4
8 | R _ B Q K B N R 
7 | P P P P P P P P 
6 | _ _ _ _ _ _ _ _ 
5 | _ _ _ _ _ _ _ _ 
4 | _ _ _ N _ _ _ _ 
3 | _ _ _ P _ _ P _ 
2 | P P P _ P P _ P 
1 | R N B Q K B N R 
-------------------
  | A B C D E F G H 

Turn of: white
Succesful move
f2f4
8 | R _ B Q K B N R 
7 | P P P P P P P P 
6 | _ _ _ _ _ _ _ _ 
5 | _ _ _ _ _ _ _ _ 
4 | _ _ _ N _ P _ _ 
3 | _ _ _ P _ _ P _ 
2 | P P P _ P _ _ P 
1 | R N B Q K B N R 
-------------------
  | A B C D E F G H 

Turn of: black
Succesful move
g8f6
8 | R _ B Q K B _ R 
7 | P P P P P P P P 
6 | _ _ _ _ _ N _ _ 
5 | _ _ _ _ _ _ _ _ 
4 | _ _ _ N _ P _ _ 
3 | _ _ _ P _ _ P _ 
2 | P P P _ P _ _ P 
1 | R N B Q K B N R 
-------------------
  | A B C D E F G H 

Turn of: white
Succesful move
f4f5
8 | R _ B Q K B _ R 
7 | P P P P P P P P 
6 | _ _ _ _ _ N _ _ 
5 | _ _ _ _ _ P _ _ 
4 | _ _ _ N _ _ _ _ 
3 | _ _ _ P _ _ P _ 
2 | P P P _ P _ _ P 
1 | R N B Q K B N R 
-------------------
  | A B C D E F G H 

Turn of: black
Succesful move
d4f5
8 | R _ B Q K B _ R 
7 | P P P P P P P P 
6 | _ _ _ _ _ N _ _ 
5 | _ _ _ _ _ N _ _ 
4 | _ _ _ _ _ _ _ _ 
3 | _ _ _ P _ _ P _ 
2 | P P P _ P _ _ P 
1 | R N B Q K B N R 
-------------------
  | A B C D E F G H 

Turn of: white
Succesful move
b1a3
8 | R _ B Q K B _ R 
7 | P P P P P P P P 
6 | _ _ _ _ _ N _ _ 
5 | _ _ _ _ _ N _ _ 
4 | _ _ _ _ _ _ _ _ 
3 | N _ _ P _ _ P _ 
2 | P P P _ P _ _ P 
1 | R _ B Q K B N R 
-------------------
  | A B C D E F G H 

Turn of: black
Succesful move
f5d4
8 | R _ B Q K B _ R 
7 | P P P P P P P P 
6 | _ _ _ _ _ N _ _ 
5 | _ _ _ _ _ _ _ _ 
4 | _ _ _ N _ _ _ _ 
3 | N _ _ P _ _ P _ 
2 | P P P _ P _ _ P 
1 | R _ B Q K B N R 
-------------------
  | A B C D E F G H 

Turn of: white
Succesful move
h2h4
8 | R _ B Q K B _ R 
7 | P P P P P P P P 
6 | _ _ _ _ _ N _ _ 
5 | _ _ _ _ _ _ _ _ 
4 | _ _ _ N _ _ _ P 
3 | N _ _ P _ _ P _ 
2 | P P P _ P _ _ _ 
1 | R _ B Q K B N R 
-------------------
  | A B C D E F G H 

Turn of: black
Succesful move
f6d5
8 | R _ B Q K B _ R 
7 | P P P P P P P P 
6 | _ _ _ _ _ _ _ _ 
5 | _ _ _ N _ _ _ _ 
4 | _ _ _ N _ _ _ P 
3 | N _ _ P _ _ P _ 
2 | P P P _ P _ _ _ 
1 | R _ B Q K B N R 
-------------------
  | A B C D E F G H 

Turn of: white
Succesful move
d1d2
8 | R _ B Q K B _ R 
7 | P P P P P P P P 
6 | _ _ _ _ _ _ _ _ 
5 | _ _ _ N _ _ _ _ 
4 | _ _ _ N _ _ _ P 
3 | N _ _ P _ _ P _ 
2 | P P P Q P _ _ _ 
1 | R _ B _ K B N R 
-------------------
  | A B C D E F G H 

Turn of: black
Succesful move
d5b6
8 | R _ B Q K B _ R 
7 | P P P P P P P P 
6 | _ N _ _ _ _ _ _ 
5 | _ _ _ _ _ _ _ _ 
4 | _ _ _ N _ _ _ P 
3 | N _ _ P _ _ P _ 
2 | P P P Q P _ _ _ 
1 | R _ B _ K B N R 
-------------------
  | A B C D E F G H 

Turn of: white
Succesful move
d2c3
8 | R _ B Q K B _ R 
7 | P P P P P P P P 
6 | _ N _ _ _ _ _ _ 
5 | _ _ _ _ _ _ _ _ 
4 | _ _ _ N _ _ _ P 
3 | N _ Q P _ _ P _ 
2 | P P P _ P _ _ _ 
1 | R _ B _ K B N R 
-------------------
  | A B C D E F G H 

Turn of: black
Succesful move
e7e5
8 | R _ B Q K B _ R 
7 | P P P P _ P P P 
6 | _ N _ _ _ _ _ _ 
5 | _ _ _ _ P _ _ _ 
4 | _ _ _ N _ _ _ P 
3 | N _ Q P _ _ P _ 
2 | P P P _ P _ _ _ 
1 | R _ B _ K B N R 
-------------------
  | A B C D E F G H 

Turn of: white
Succesful move
h4h5
8 | R _ B Q K B _ R 
7 | P P P P _ P P P 
6 | _ N _ _ _ _ _ _ 
5 | _ _ _ _ P _ _ P 
4 | _ _ _ N _ _ _ _ 
3 | N _ Q P _ _ P _ 
2 | P P P _ P _ _ _ 
1 | R _ B _ K B N R 
-------------------
  | A B C D E F G H 

Turn of: black
Succesful move
b6d5
8 | R _ B Q K B _ R 
7 | P P P P _ P P P 
6 | _ _ _ _ _ _ _ _ 
5 | _ _ _ N P _ _ P 
4 | _ _ _ N _ _ _ _ 
3 | N _ Q P _ _ P _ 
2 | P P P _ P _ _ _ 
1 | R _ B _ K B N R 
-------------------
  | A B C D E F G H 

Turn of: white
Succesful move
c3d2
8 | R _ B Q K B _ R 
7 | P P P P _ P P P 
6 | _ _ _ _ _ _ _ _ 
5 | _ _ _ N P _ _ P 
4 | _ _ _ N _ _ _ _ 
3 | N _ _ P _ _ P _ 
2 | P P P Q P _ _ _ 
1 | R _ B _ K B N R 
-------------------
  | A B C D E F G H 

Turn of: black
Succesful move
f8b4
8 | R _ B Q K _ _ R 
7 | P P P P _ P P P 
6 | _ _ _ _ _ _ _ _ 
5 | _ _ _ N P _ _ P 
4 | _ B _ N _ _ _ _ 
3 | N _ _ P _ _ P _ 
2 | P P P Q P _ _ _ 
1 | R _ B _ K B N R 
-------------------
  | A B C D E F G H 

We are playing as White
Move history:
g2g3
b8c6
d2d3
c6d4
f2f4
g8f6
f4f5
d4f5
b1a3
f5d4
h2h4
f6d5
d1d2
d5b6
d2c3
e7e5
h4h5
b6d5
c3d2
f8b4
8 | R _ B Q K _ _ R 
7 | P P P P _ P P P 
6 | _ _ _ _ _ _ _ _ 
5 | _ _ _ N P _ _ P 
4 | _ B _ N _ _ _ _ 
3 | N _ _ P _ _ P _ 
2 | P P P Q P _ _ _ 
1 | R _ B _ K B N R 
-------------------
  | A B C D E F G H 

It is white's turn to play.
AI's move: d2c3
Move written: d2c3
[32;1m[Game] [0mPlayer's error code: 0
[32;1m[Game] [0mChecking move validity...
[32;1m[Board] [0mInitializing board...
[32;1m[Board] [0mLoading history file `championship/lizzie-iii-blueherring/history.csv`...
[32;1m[Board] [0mLoaded 20 move(s).
[32;1m[Board] [0mLoading move file `championship/lizzie-iii-blueherring/move.csv`...
[32;1m[Board] [0mWhite player is playing d2 to c3.
[32;1m[Board] [0m
[32;1m[Board] [0m    a b c d e f g h 
[32;1m[Board] [0m  -------------------
[32;1m[Board] [0m8 ||[30;1mr[0m| |[30;1mb[0m|[30;1mQ[0m|[30;1mK[0m| |[7;1m [0m|[30;1mr[0m|| 8
[32;1m[Board] [0m  -------------------
[32;1m[Board] [0m7 ||[30;1mp[0m|[30;1mp[0m|[30;1mp[0m|[30;1mp[0m| |[30;1mp[0m|[30;1mp[0m|[30;1mp[0m|| 7
[32;1m[Board] [0m  -------------------
[32;1m[Board] [0m6 ||[7;1m [0m| |[7;1m [0m| |[7;1m [0m| |[7;1m [0m| || 6
[32;1m[Board] [0m  -------------------
[32;1m[Board] [0m5 || |[7;1m [0m| |[30;1mk[0m|[30;1mp[0m|[7;1m [0m| |[0;1mp[0m|| 5
[32;1m[Board] [0m  -------------------
[32;1m[Board] [0m4 ||[7;1m [0m|[30;1mb[0m|[7;1m [0m|[30;1mk[0m|[7;1m [0m| |[7;1m [0m| || 4
[32;1m[Board] [0m  -------------------
[32;1m[Board] [0m3 ||[0;1mk[0m|[7;1m [0m|[0;1mQ[0m|[0;1mp[0m| |[7;1m [0m|[0;1mp[0m|[7;1m [0m|| 3
[32;1m[Board] [0m  -------------------
[32;1m[Board] [0m2 ||[0;1mp[0m|[0;1mp[0m|[0;1mp[0m| |[0;1mp[0m| |[7;1m [0m| || 2
[32;1m[Board] [0m  -------------------
[32;1m[Board] [0m1 ||[0;1mr[0m|[7;1m [0m|[0;1mb[0m|[7;1m [0m|[0;1mK[0m|[0;1mb[0m|[0;1mk[0m|[0;1mr[0m|| 1
[32;1m[Board] [0m  -------------------
[32;1m[Board] [0m    a b c d e f g h
[32;1m[Board] [0m
[32;1m[Referee] [0mThis is the turn of the Black player...
[32;1m[Game] [0mPlayer's error code: 0
[32;1m[Game] [0mChecking move validity...
[32;1m[Board] [0mInitializing board...
[32;1m[Board] [0mLoading history file `championship/lizzie-iii-blueherring/history.csv`...
[32;1m[Board] [0mLoaded 21 move(s).
[32;1m[Board] [0mLoading move file `championship/lizzie-iii-blueherring/move.csv`...
[32;1m[Board] [0mBlack player is playing d5 to c3.
[32;1m[Board] [0m[5;1mBlack Knight is taking White Queen.[0m
[32;1m[Board] [0m
[32;1m[Board] [0m    a b c d e f g h 
[32;1m[Board] [0m  -------------------
[32;1m[Board] [0m8 ||[30;1mr[0m| |[30;1mb[0m|[30;1mQ[0m|[30;1mK[0m| |[7;1m [0m|[30;1mr[0m|| 8
[32;1m[Board] [0m  -------------------
[32;1m[Board] [0m7 ||[30;1mp[0m|[30;1mp[0m|[30;1mp[0m|[30;1mp[0m| |[30;1mp[0m|[30;1mp[0m|[30;1mp[0m|| 7
[32;1m[Board] [0m  -------------------
[32;1m[Board] [0m6 ||[7;1m [0m| |[7;1m [0m| |[7;1m [0m| |[7;1m [0m| || 6
[32;1m[Board] [0m  -------------------
[32;1m[Board] [0m5 || |[7;1m [0m| |[7;1m [0m|[30;1mp[0m|[7;1m [0m| |[0;1mp[0m|| 5
[32;1m[Board] [0m  -------------------
[32;1m[Board] [0m4 ||[7;1m [0m|[30;1mb[0m|[7;1m [0m|[30;1mk[0m|[7;1m [0m| |[7;1m [0m| || 4
[32;1m[Board] [0m  -------------------
[32;1m[Board] [0m3 ||[0;1mk[0m|[7;1m [0m|[30;1mk[0m|[0;1mp[0m| |[7;1m [0m|[0;1mp[0m|[7;1m [0m|| 3
[32;1m[Board] [0m  -------------------
[32;1m[Board] [0m2 ||[0;1mp[0m|[0;1mp[0m|[0;1mp[0m| |[0;1mp[0m| |[7;1m [0m| || 2
[32;1m[Board] [0m  -------------------
[32;1m[Board] [0m1 ||[0;1mr[0m|[7;1m [0m|[0;1mb[0m|[7;1m [0m|[0;1mK[0m|[0;1mb[0m|[0;1mk[0m|[0;1mr[0m|| 1
[32;1m[Board] [0m  -------------------
[32;1m[Board] [0m    a b c d e f g h
[32;1m[Board] [0m
[32;1m[Referee] [0mThis is the turn of the White player...
Input file: championship/lizzie-iii-blueherring/history.csv
Output file: championship/lizzie-iii-blueherring/move.csv
Turn of: white
Succesful move
g2g3
8 | R N B Q K B N R 
7 | P P P P P P P P 
6 | _ _ _ _ _ _ _ _ 
5 | _ _ _ _ _ _ _ _ 
4 | _ _ _ _ _ _ _ _ 
3 | _ _ _ _ _ _ P _ 
2 | P P P P P P _ P 
1 | R N B Q K B N R 
-------------------
  | A B C D E F G H 

Turn of: black
Succesful move
b8c6
8 | R _ B Q K B N R 
7 | P P P P P P P P 
6 | _ _ N _ _ _ _ _ 
5 | _ _ _ _ _ _ _ _ 
4 | _ _ _ _ _ _ _ _ 
3 | _ _ _ _ _ _ P _ 
2 | P P P P P P _ P 
1 | R N B Q K B N R 
-------------------
  | A B C D E F G H 

Turn of: white
Succesful move
d2d3
8 | R _ B Q K B N R 
7 | P P P P P P P P 
6 | _ _ N _ _ _ _ _ 
5 | _ _ _ _ _ _ _ _ 
4 | _ _ _ _ _ _ _ _ 
3 | _ _ _ P _ _ P _ 
2 | P P P _ P P _ P 
1 | R N B Q K B N R 
-------------------
  | A B C D E F G H 

Turn of: black
Succesful move
c6d4
8 | R _ B Q K B N R 
7 | P P P P P P P P 
6 | _ _ _ _ _ _ _ _ 
5 | _ _ _ _ _ _ _ _ 
4 | _ _ _ N _ _ _ _ 
3 | _ _ _ P _ _ P _ 
2 | P P P _ P P _ P 
1 | R N B Q K B N R 
-------------------
  | A B C D E F G H 

Turn of: white
Succesful move
f2f4
8 | R _ B Q K B N R 
7 | P P P P P P P P 
6 | _ _ _ _ _ _ _ _ 
5 | _ _ _ _ _ _ _ _ 
4 | _ _ _ N _ P _ _ 
3 | _ _ _ P _ _ P _ 
2 | P P P _ P _ _ P 
1 | R N B Q K B N R 
-------------------
  | A B C D E F G H 

Turn of: black
Succesful move
g8f6
8 | R _ B Q K B _ R 
7 | P P P P P P P P 
6 | _ _ _ _ _ N _ _ 
5 | _ _ _ _ _ _ _ _ 
4 | _ _ _ N _ P _ _ 
3 | _ _ _ P _ _ P _ 
2 | P P P _ P _ _ P 
1 | R N B Q K B N R 
-------------------
  | A B C D E F G H 

Turn of: white
Succesful move
f4f5
8 | R _ B Q K B _ R 
7 | P P P P P P P P 
6 | _ _ _ _ _ N _ _ 
5 | _ _ _ _ _ P _ _ 
4 | _ _ _ N _ _ _ _ 
3 | _ _ _ P _ _ P _ 
2 | P P P _ P _ _ P 
1 | R N B Q K B N R 
-------------------
  | A B C D E F G H 

Turn of: black
Succesful move
d4f5
8 | R _ B Q K B _ R 
7 | P P P P P P P P 
6 | _ _ _ _ _ N _ _ 
5 | _ _ _ _ _ N _ _ 
4 | _ _ _ _ _ _ _ _ 
3 | _ _ _ P _ _ P _ 
2 | P P P _ P _ _ P 
1 | R N B Q K B N R 
-------------------
  | A B C D E F G H 

Turn of: white
Succesful move
b1a3
8 | R _ B Q K B _ R 
7 | P P P P P P P P 
6 | _ _ _ _ _ N _ _ 
5 | _ _ _ _ _ N _ _ 
4 | _ _ _ _ _ _ _ _ 
3 | N _ _ P _ _ P _ 
2 | P P P _ P _ _ P 
1 | R _ B Q K B N R 
-------------------
  | A B C D E F G H 

Turn of: black
Succesful move
f5d4
8 | R _ B Q K B _ R 
7 | P P P P P P P P 
6 | _ _ _ _ _ N _ _ 
5 | _ _ _ _ _ _ _ _ 
4 | _ _ _ N _ _ _ _ 
3 | N _ _ P _ _ P _ 
2 | P P P _ P _ _ P 
1 | R _ B Q K B N R 
-------------------
  | A B C D E F G H 

Turn of: white
Succesful move
h2h4
8 | R _ B Q K B _ R 
7 | P P P P P P P P 
6 | _ _ _ _ _ N _ _ 
5 | _ _ _ _ _ _ _ _ 
4 | _ _ _ N _ _ _ P 
3 | N _ _ P _ _ P _ 
2 | P P P _ P _ _ _ 
1 | R _ B Q K B N R 
-------------------
  | A B C D E F G H 

Turn of: black
Succesful move
f6d5
8 | R _ B Q K B _ R 
7 | P P P P P P P P 
6 | _ _ _ _ _ _ _ _ 
5 | _ _ _ N _ _ _ _ 
4 | _ _ _ N _ _ _ P 
3 | N _ _ P _ _ P _ 
2 | P P P _ P _ _ _ 
1 | R _ B Q K B N R 
-------------------
  | A B C D E F G H 

Turn of: white
Succesful move
d1d2
8 | R _ B Q K B _ R 
7 | P P P P P P P P 
6 | _ _ _ _ _ _ _ _ 
5 | _ _ _ N _ _ _ _ 
4 | _ _ _ N _ _ _ P 
3 | N _ _ P _ _ P _ 
2 | P P P Q P _ _ _ 
1 | R _ B _ K B N R 
-------------------
  | A B C D E F G H 

Turn of: black
Succesful move
d5b6
8 | R _ B Q K B _ R 
7 | P P P P P P P P 
6 | _ N _ _ _ _ _ _ 
5 | _ _ _ _ _ _ _ _ 
4 | _ _ _ N _ _ _ P 
3 | N _ _ P _ _ P _ 
2 | P P P Q P _ _ _ 
1 | R _ B _ K B N R 
-------------------
  | A B C D E F G H 

Turn of: white
Succesful move
d2c3
8 | R _ B Q K B _ R 
7 | P P P P P P P P 
6 | _ N _ _ _ _ _ _ 
5 | _ _ _ _ _ _ _ _ 
4 | _ _ _ N _ _ _ P 
3 | N _ Q P _ _ P _ 
2 | P P P _ P _ _ _ 
1 | R _ B _ K B N R 
-------------------
  | A B C D E F G H 

Turn of: black
Succesful move
e7e5
8 | R _ B Q K B _ R 
7 | P P P P _ P P P 
6 | _ N _ _ _ _ _ _ 
5 | _ _ _ _ P _ _ _ 
4 | _ _ _ N _ _ _ P 
3 | N _ Q P _ _ P _ 
2 | P P P _ P _ _ _ 
1 | R _ B _ K B N R 
-------------------
  | A B C D E F G H 

Turn of: white
Succesful move
h4h5
8 | R _ B Q K B _ R 
7 | P P P P _ P P P 
6 | _ N _ _ _ _ _ _ 
5 | _ _ _ _ P _ _ P 
4 | _ _ _ N _ _ _ _ 
3 | N _ Q P _ _ P _ 
2 | P P P _ P _ _ _ 
1 | R _ B _ K B N R 
-------------------
  | A B C D E F G H 

Turn of: black
Succesful move
b6d5
8 | R _ B Q K B _ R 
7 | P P P P _ P P P 
6 | _ _ _ _ _ _ _ _ 
5 | _ _ _ N P _ _ P 
4 | _ _ _ N _ _ _ _ 
3 | N _ Q P _ _ P _ 
2 | P P P _ P _ _ _ 
1 | R _ B _ K B N R 
-------------------
  | A B C D E F G H 

Turn of: white
Succesful move
c3d2
8 | R _ B Q K B _ R 
7 | P P P P _ P P P 
6 | _ _ _ _ _ _ _ _ 
5 | _ _ _ N P _ _ P 
4 | _ _ _ N _ _ _ _ 
3 | N _ _ P _ _ P _ 
2 | P P P Q P _ _ _ 
1 | R _ B _ K B N R 
-------------------
  | A B C D E F G H 

Turn of: black
Succesful move
f8b4
8 | R _ B Q K _ _ R 
7 | P P P P _ P P P 
6 | _ _ _ _ _ _ _ _ 
5 | _ _ _ N P _ _ P 
4 | _ B _ N _ _ _ _ 
3 | N _ _ P _ _ P _ 
2 | P P P Q P _ _ _ 
1 | R _ B _ K B N R 
-------------------
  | A B C D E F G H 

Turn of: white
Succesful move
d2c3
8 | R _ B Q K _ _ R 
7 | P P P P _ P P P 
6 | _ _ _ _ _ _ _ _ 
5 | _ _ _ N P _ _ P 
4 | _ B _ N _ _ _ _ 
3 | N _ Q P _ _ P _ 
2 | P P P _ P _ _ _ 
1 | R _ B _ K B N R 
-------------------
  | A B C D E F G H 

Turn of: black
Succesful move
d5c3
8 | R _ B Q K _ _ R 
7 | P P P P _ P P P 
6 | _ _ _ _ _ _ _ _ 
5 | _ _ _ _ P _ _ P 
4 | _ B _ N _ _ _ _ 
3 | N _ N P _ _ P _ 
2 | P P P _ P _ _ _ 
1 | R _ B _ K B N R 
-------------------
  | A B C D E F G H 

We are playing as White
Move history:
g2g3
b8c6
d2d3
c6d4
f2f4
g8f6
f4f5
d4f5
b1a3
f5d4
h2h4
f6d5
d1d2
d5b6
d2c3
e7e5
h4h5
b6d5
c3d2
f8b4
d2c3
d5c3
8 | R _ B Q K _ _ R 
7 | P P P P _ P P P 
6 | _ _ _ _ _ _ _ _ 
5 | _ _ _ _ P _ _ P 
4 | _ B _ N _ _ _ _ 
3 | N _ N P _ _ P _ 
2 | P P P _ P _ _ _ 
1 | R _ B _ K B N R 
-------------------
  | A B C D E F G H 

It is white's turn to play.
AI's move: c1d2
Move written: c1d2
[32;1m[Game] [0mPlayer's error code: 0
[32;1m[Game] [0mChecking move validity...
[32;1m[Board] [0mInitializing board...
[32;1m[Board] [0mLoading history file `championship/lizzie-iii-blueherring/history.csv`...
[32;1m[Board] [0mLoaded 22 move(s).
[32;1m[Board] [0mLoading move file `championship/lizzie-iii-blueherring/move.csv`...
[32;1m[Board] [0mWhite player is playing c1 to d2.
[32;1m[Board] [0m
[32;1m[Board] [0m    a b c d e f g h 
[32;1m[Board] [0m  -------------------
[32;1m[Board] [0m8 ||[30;1mr[0m| |[30;1mb[0m|[30;1mQ[0m|[30;1mK[0m| |[7;1m [0m|[30;1mr[0m|| 8
[32;1m[Board] [0m  -------------------
[32;1m[Board] [0m7 ||[30;1mp[0m|[30;1mp[0m|[30;1mp[0m|[30;1mp[0m| |[30;1mp[0m|[30;1mp[0m|[30;1mp[0m|| 7
[32;1m[Board] [0m  -------------------
[32;1m[Board] [0m6 ||[7;1m [0m| |[7;1m [0m| |[7;1m [0m| |[7;1m [0m| || 6
[...]
[32;1m[Board] [0m  -------------------
[32;1m[Board] [0m2 ||[7;1m [0m| |[7;1m [0m|[30;1mb[0m|[0;1mb[0m| |[7;1m [0m| || 2
[32;1m[Board] [0m  -------------------
[32;1m[Board] [0m1 || |[7;1m [0m| |[7;1m [0m|[30;1mQ[0m|[7;1m [0m| |[0;1mr[0m|| 1
[32;1m[Board] [0m  -------------------
[32;1m[Board] [0m    a b c d e f g h
[32;1m[Board] [0m
[32;1m[Referee] [0mThis is the turn of the Black player...
[32;1m[Game] [0mPlayer's error code: 0
[32;1m[Game] [0mChecking move validity...
[32;1m[Board] [0mInitializing board...
[32;1m[Board] [0mLoading history file `championship/lizzie-iii-blueherring/history.csv`...
[32;1m[Board] [0mLoaded 53 move(s).
[32;1m[Board] [0mLoading move file `championship/lizzie-iii-blueherring/move.csv`...
[32;1m[Board] [0mBlack player is playing e1 to h1.
[32;1m[Board] [0m[5;1mBlack Queen is taking White Rook.[0m
[32;1m[Board] [0m
[32;1m[Board] [0m    a b c d e f g h 
[32;1m[Board] [0m  -------------------
[32;1m[Board] [0m8 ||[30;1mr[0m| |[30;1mb[0m| |[7;1m [0m|[30;1mK[0m|[7;1m [0m|[30;1mr[0m|| 8
[32;1m[Board] [0m  -------------------
[32;1m[Board] [0m7 ||[30;1mp[0m|[30;1mp[0m|[30;1mp[0m|[30;1mp[0m| |[30;1mp[0m|[30;1mp[0m|[30;1mp[0m|| 7
[32;1m[Board] [0m  -------------------
[32;1m[Board] [0m6 ||[7;1m [0m| |[7;1m [0m| |[7;1m [0m| |[7;1m [0m| || 6
[32;1m[Board] [0m  -------------------
[32;1m[Board] [0m5 || |[7;1m [0m|[30;1mk[0m|[7;1m [0m| |[7;1m [0m| |[0;1mp[0m|| 5
[32;1m[Board] [0m  -------------------
[32;1m[Board] [0m4 ||[7;1m [0m| |[7;1m [0m|[30;1mp[0m|[7;1m [0m| |[7;1m [0m| || 4
[32;1m[Board] [0m  -------------------
[32;1m[Board] [0m3 || |[7;1m [0m| |[0;1mp[0m|[30;1mk[0m|[0;1mK[0m|[0;1mp[0m|[0;1mk[0m|| 3
[32;1m[Board] [0m  -------------------
[32;1m[Board] [0m2 ||[7;1m [0m| |[7;1m [0m|[30;1mb[0m|[0;1mb[0m| |[7;1m [0m| || 2
[32;1m[Board] [0m  -------------------
[32;1m[Board] [0m1 || |[7;1m [0m| |[7;1m [0m| |[7;1m [0m| |[30;1mQ[0m|| 1
[32;1m[Board] [0m  -------------------
[32;1m[Board] [0m    a b c d e f g h
[32;1m[Board] [0m
[32;1m[Referee] [0mThis is the turn of the White player...
[32;1m[Board] [0m[33;1m[WARNING][0m [5;1mWhite King in check![0m
[32;1m[Board] [0m[33;1m[WARNING][0m    Threatened by Black Queen (h1)
Input file: championship/lizzie-iii-blueherring/history.csv
Output file: championship/lizzie-iii-blueherring/move.csv
Turn of: white
Succesful move
g2g3
8 | R N B Q K B N R 
7 | P P P P P P P P 
6 | _ _ _ _ _ _ _ _ 
5 | _ _ _ _ _ _ _ _ 
4 | _ _ _ _ _ _ _ _ 
3 | _ _ _ _ _ _ P _ 
2 | P P P P P P _ P 
1 | R N B Q K B N R 
-------------------
  | A B C D E F G H 

Turn of: black
Succesful move
b8c6
8 | R _ B Q K B N R 
7 | P P P P P P P P 
6 | _ _ N _ _ _ _ _ 
5 | _ _ _ _ _ _ _ _ 
4 | _ _ _ _ _ _ _ _ 
3 | _ _ _ _ _ _ P _ 
2 | P P P P P P _ P 
1 | R N B Q K B N R 
-------------------
  | A B C D E F G H 

Turn of: white
Succesful move
d2d3
8 | R _ B Q K B N R 
7 | P P P P P P P P 
6 | _ _ N _ _ _ _ _ 
5 | _ _ _ _ _ _ _ _ 
4 | _ _ _ _ _ _ _ _ 
3 | _ _ _ P _ _ P _ 
2 | P P P _ P P _ P 
1 | R N B Q K B N R 
-------------------
  | A B C D E F G H 

Turn of: black
Succesful move
c6d4
8 | R _ B Q K B N R 
7 | P P P P P P P P 
6 | _ _ _ _ _ _ _ _ 
5 | _ _ _ _ _ _ _ _ 
4 | _ _ _ N _ _ _ _ 
3 | _ _ _ P _ _ P _ 
2 | P P P _ P P _ P 
1 | R N B Q K B N R 
-------------------
  | A B C D E F G H 

Turn of: white
Succesful move
f2f4
8 | R _ B Q K B N R 
7 | P P P P P P P P 
6 | _ _ _ _ _ _ _ _ 
5 | _ _ _ _ _ _ _ _ 
4 | _ _ _ N _ P _ _ 
3 | _ _ _ P _ _ P _ 
2 | P P P _ P _ _ P 
1 | R N B Q K B N R 
-------------------
  | A B C D E F G H 

Turn of: black
Succesful move
g8f6
8 | R _ B Q K B _ R 
7 | P P P P P P P P 
6 | _ _ _ _ _ N _ _ 
5 | _ _ _ _ _ _ _ _ 
4 | _ _ _ N _ P _ _ 
3 | _ _ _ P _ _ P _ 
2 | P P P _ P _ _ P 
1 | R N B Q K B N R 
-------------------
  | A B C D E F G H 

Turn of: white
Succesful move
f4f5
8 | R _ B Q K B _ R 
7 | P P P P P P P P 
6 | _ _ _ _ _ N _ _ 
5 | _ _ _ _ _ P _ _ 
4 | _ _ _ N _ _ _ _ 
3 | _ _ _ P _ _ P _ 
2 | P P P _ P _ _ P 
1 | R N B Q K B N R 
-------------------
  | A B C D E F G H 

Turn of: black
Succesful move
d4f5
8 | R _ B Q K B _ R 
7 | P P P P P P P P 
6 | _ _ _ _ _ N _ _ 
5 | _ _ _ _ _ N _ _ 
4 | _ _ _ _ _ _ _ _ 
3 | _ _ _ P _ _ P _ 
2 | P P P _ P _ _ P 
1 | R N B Q K B N R 
-------------------
  | A B C D E F G H 

Turn of: white
Succesful move
b1a3
8 | R _ B Q K B _ R 
7 | P P P P P P P P 
6 | _ _ _ _ _ N _ _ 
5 | _ _ _ _ _ N _ _ 
4 | _ _ _ _ _ _ _ _ 
3 | N _ _ P _ _ P _ 
2 | P P P _ P _ _ P 
1 | R _ B Q K B N R 
-------------------
  | A B C D E F G H 

Turn of: black
Succesful move
f5d4
8 | R _ B Q K B _ R 
7 | P P P P P P P P 
6 | _ _ _ _ _ N _ _ 
5 | _ _ _ _ _ _ _ _ 
4 | _ _ _ N _ _ _ _ 
3 | N _ _ P _ _ P _ 
2 | P P P _ P _ _ P 
1 | R _ B Q K B N R 
-------------------
  | A B C D E F G H 

Turn of: white
Succesful move
h2h4
8 | R _ B Q K B _ R 
7 | P P P P P P P P 
6 | _ _ _ _ _ N _ _ 
5 | _ _ _ _ _ _ _ _ 
4 | _ _ _ N _ _ _ P 
3 | N _ _ P _ _ P _ 
2 | P P P _ P _ _ _ 
1 | R _ B Q K B N R 
-------------------
  | A B C D E F G H 

Turn of: black
Succesful move
f6d5
8 | R _ B Q K B _ R 
7 | P P P P P P P P 
6 | _ _ _ _ _ _ _ _ 
5 | _ _ _ N _ _ _ _ 
4 | _ _ _ N _ _ _ P 
3 | N _ _ P _ _ P _ 
2 | P P P _ P _ _ _ 
1 | R _ B Q K B N R 
-------------------
  | A B C D E F G H 

Turn of: white
Succesful move
d1d2
8 | R _ B Q K B _ R 
7 | P P P P P P P P 
6 | _ _ _ _ _ _ _ _ 
5 | _ _ _ N _ _ _ _ 
4 | _ _ _ N _ _ _ P 
3 | N _ _ P _ _ P _ 
2 | P P P Q P _ _ _ 
1 | R _ B _ K B N R 
-------------------
  | A B C D E F G H 

Turn of: black
Succesful move
d5b6
8 | R _ B Q K B _ R 
7 | P P P P P P P P 
6 | _ N _ _ _ _ _ _ 
5 | _ _ _ _ _ _ _ _ 
4 | _ _ _ N _ _ _ P 
3 | N _ _ P _ _ P _ 
2 | P P P Q P _ _ _ 
1 | R _ B _ K B N R 
-------------------
  | A B C D E F G H 

Turn of: white
Succesful move
d2c3
8 | R _ B Q K B _ R 
7 | P P P P P P P P 
6 | _ N _ _ _ _ _ _ 
5 | _ _ _ _ _ _ _ _ 
4 | _ _ _ N _ _ _ P 
3 | N _ Q P _ _ P _ 
2 | P P P _ P _ _ _ 
1 | R _ B _ K B N R 
-------------------
  | A B C D E F G H 

Turn of: black
Succesful move
e7e5
8 | R _ B Q K B _ R 
7 | P P P P _ P P P 
6 | _ N _ _ _ _ _ _ 
5 | _ _ _ _ P _ _ _ 
4 | _ _ _ N _ _ _ P 
3 | N _ Q P _ _ P _ 
2 | P P P _ P _ _ _ 
1 | R _ B _ K B N R 
-------------------
  | A B C D E F G H 

Turn of: white
Succesful move
h4h5
8 | R _ B Q K B _ R 
7 | P P P P _ P P P 
6 | _ N _ _ _ _ _ _ 
5 | _ _ _ _ P _ _ P 
4 | _ _ _ N _ _ _ _ 
3 | N _ Q P _ _ P _ 
2 | P P P _ P _ _ _ 
1 | R _ B _ K B N R 
-------------------
  | A B C D E F G H 

Turn of: black
Succesful move
b6d5
8 | R _ B Q K B _ R 
7 | P P P P _ P P P 
6 | _ _ _ _ _ _ _ _ 
5 | _ _ _ N P _ _ P 
4 | _ _ _ N _ _ _ _ 
3 | N _ Q P _ _ P _ 
2 | P P P _ P _ _ _ 
1 | R _ B _ K B N R 
-------------------
  | A B C D E F G H 

Turn of: white
Succesful move
c3d2
8 | R _ B Q K B _ R 
7 | P P P P _ P P P 
6 | _ _ _ _ _ _ _ _ 
5 | _ _ _ N P _ _ P 
4 | _ _ _ N _ _ _ _ 
3 | N _ _ P _ _ P _ 
2 | P P P Q P _ _ _ 
1 | R _ B _ K B N R 
-------------------
  | A B C D E F G H 

Turn of: black
Succesful move
f8b4
8 | R _ B Q K _ _ R 
7 | P P P P _ P P P 
6 | _ _ _ _ _ _ _ _ 
5 | _ _ _ N P _ _ P 
4 | _ B _ N _ _ _ _ 
3 | N _ _ P _ _ P _ 
2 | P P P Q P _ _ _ 
1 | R _ B _ K B N R 
-------------------
  | A B C D E F G H 

Turn of: white
Succesful move
d2c3
8 | R _ B Q K _ _ R 
7 | P P P P _ P P P 
6 | _ _ _ _ _ _ _ _ 
5 | _ _ _ N P _ _ P 
4 | _ B _ N _ _ _ _ 
3 | N _ Q P _ _ P _ 
2 | P P P _ P _ _ _ 
1 | R _ B _ K B N R 
-------------------
  | A B C D E F G H 

Turn of: black
Succesful move
d5c3
8 | R _ B Q K _ _ R 
7 | P P P P _ P P P 
6 | _ _ _ _ _ _ _ _ 
5 | _ _ _ _ P _ _ P 
4 | _ B _ N _ _ _ _ 
3 | N _ N P _ _ P _ 
2 | P P P _ P _ _ _ 
1 | R _ B _ K B N R 
-------------------
  | A B C D E F G H 

Turn of: white
Succesful move
c1d2
8 | R _ B Q K _ _ R 
7 | P P P P _ P P P 
6 | _ _ _ _ _ _ _ _ 
5 | _ _ _ _ P _ _ P 
4 | _ B _ N _ _ _ _ 
3 | N _ N P _ _ P _ 
2 | P P P B P _ _ _ 
1 | R _ _ _ K B N R 
-------------------
  | A B C D E F G H 

Turn of: black
Succesful move
c3a2
8 | R _ B Q K _ _ R 
7 | P P P P _ P P P 
6 | _ _ _ _ _ _ _ _ 
5 | _ _ _ _ P _ _ P 
4 | _ B _ N _ _ _ _ 
3 | N _ _ P _ _ P _ 
2 | N P P B P _ _ _ 
1 | R _ _ _ K B N R 
-------------------
  | A B C D E F G H 

Turn of: white
Succesful move
a3b5
8 | R _ B Q K _ _ R 
7 | P P P P _ P P P 
6 | _ _ _ _ _ _ _ _ 
5 | _ N _ _ P _ _ P 
4 | _ B _ N _ _ _ _ 
3 | _ _ _ P _ _ P _ 
2 | N P P B P _ _ _ 
1 | R _ _ _ K B N R 
-------------------
  | A B C D E F G H 

Turn of: black
Succesful move
d4c2
8 | R _ B Q K _ _ R 
7 | P P P P _ P P P 
6 | _ _ _ _ _ _ _ _ 
5 | _ N _ _ P _ _ P 
4 | _ B _ _ _ _ _ _ 
3 | _ _ _ P _ _ P _ 
2 | N P N B P _ _ _ 
1 | R _ _ _ K B N R 
-------------------
  | A B C D E F G H 

Turn of: white
Succesful move
e1f2
8 | R _ B Q K _ _ R 
7 | P P P P _ P P P 
6 | _ _ _ _ _ _ _ _ 
5 | _ N _ _ P _ _ P 
4 | _ B _ _ _ _ _ _ 
3 | _ _ _ P _ _ P _ 
2 | N P N B P K _ _ 
1 | R _ _ _ _ B N R 
-------------------
  | A B C D E F G H 

Turn of: black
Succesful move
c2a1
8 | R _ B Q K _ _ R 
7 | P P P P _ P P P 
6 | _ _ _ _ _ _ _ _ 
5 | _ N _ _ P _ _ P 
4 | _ B _ _ _ _ _ _ 
3 | _ _ _ P _ _ P _ 
2 | N P _ B P K _ _ 
1 | N _ _ _ _ B N R 
-------------------
  | A B C D E F G H 

Turn of: white
Succesful move
h1h2
8 | R _ B Q K _ _ R 
7 | P P P P _ P P P 
6 | _ _ _ _ _ _ _ _ 
5 | _ N _ _ P _ _ P 
4 | _ B _ _ _ _ _ _ 
3 | _ _ _ P _ _ P _ 
2 | N P _ B P K _ R 
1 | N _ _ _ _ B N _ 
-------------------
  | A B C D E F G H 

Turn of: black
Succesful move
b4d2
8 | R _ B Q K _ _ R 
7 | P P P P _ P P P 
6 | _ _ _ _ _ _ _ _ 
5 | _ N _ _ P _ _ P 
4 | _ _ _ _ _ _ _ _ 
3 | _ _ _ P _ _ P _ 
2 | N P _ B P K _ R 
1 | N _ _ _ _ B N _ 
-------------------
  | A B C D E F G H 

Turn of: white
Succesful move
b2b4
8 | R _ B Q K _ _ R 
7 | P P P P _ P P P 
6 | _ _ _ _ _ _ _ _ 
5 | _ N _ _ P _ _ P 
4 | _ P _ _ _ _ _ _ 
3 | _ _ _ P _ _ P _ 
2 | N _ _ B P K _ R 
1 | N _ _ _ _ B N _ 
-------------------
  | A B C D E F G H 

Turn of: black
Succesful move
d8f6
8 | R _ B _ K _ _ R 
7 | P P P P _ P P P 
6 | _ _ _ _ _ Q _ _ 
5 | _ N _ _ P _ _ P 
4 | _ P _ _ _ _ _ _ 
3 | _ _ _ P _ _ P _ 
2 | N _ _ B P K _ R 
1 | N _ _ _ _ B N _ 
-------------------
  | A B C D E F G H 

Turn of: white
Succesful move
g1f3
8 | R _ B _ K _ _ R 
7 | P P P P _ P P P 
6 | _ _ _ _ _ Q _ _ 
5 | _ N _ _ P _ _ P 
4 | _ P _ _ _ _ _ _ 
3 | _ _ _ P _ N P _ 
2 | N _ _ B P K _ R 
1 | N _ _ _ _ B _ _ 
-------------------
  | A B C D E F G H 

Turn of: black
Succesful move
f6b6
8 | R _ B _ K _ _ R 
7 | P P P P _ P P P 
6 | _ Q _ _ _ _ _ _ 
5 | _ N _ _ P _ _ P 
4 | _ P _ _ _ _ _ _ 
3 | _ _ _ P _ N P _ 
2 | N _ _ B P K _ R 
1 | N _ _ _ _ B _ _ 
-------------------
  | A B C D E F G H 

Turn of: white
Succesful move
e2e3
8 | R _ B _ K _ _ R 
7 | P P P P _ P P P 
6 | _ Q _ _ _ _ _ _ 
5 | _ N _ _ P _ _ P 
4 | _ P _ _ _ _ _ _ 
3 | _ _ _ P P N P _ 
2 | N _ _ B _ K _ R 
1 | N _ _ _ _ B _ _ 
-------------------
  | A B C D E F G H 

Turn of: black
Succesful move
b6e3
8 | R _ B _ K _ _ R 
7 | P P P P _ P P P 
6 | _ _ _ _ _ _ _ _ 
5 | _ N _ _ P _ _ P 
4 | _ P _ _ _ _ _ _ 
3 | _ _ _ P Q N P _ 
2 | N _ _ B _ K _ R 
1 | N _ _ _ _ B _ _ 
-------------------
  | A B C D E F G H 

Turn of: white
Succesful move
f2g2
8 | R _ B _ K _ _ R 
7 | P P P P _ P P P 
6 | _ _ _ _ _ _ _ _ 
5 | _ N _ _ P _ _ P 
4 | _ P _ _ _ _ _ _ 
3 | _ _ _ P Q N P _ 
2 | N _ _ B _ _ K R 
1 | N _ _ _ _ B _ _ 
-------------------
  | A B C D E F G H 

Turn of: black
Succesful move
a2b4
8 | R _ B _ K _ _ R 
7 | P P P P _ P P P 
6 | _ _ _ _ _ _ _ _ 
5 | _ N _ _ P _ _ P 
4 | _ N _ _ _ _ _ _ 
3 | _ _ _ P Q N P _ 
2 | _ _ _ B _ _ K R 
1 | N _ _ _ _ B _ _ 
-------------------
  | A B C D E F G H 

Turn of: white
Succesful move
b5d4
8 | R _ B _ K _ _ R 
7 | P P P P _ P P P 
6 | _ _ _ _ _ _ _ _ 
5 | _ _ _ _ P _ _ P 
4 | _ N _ N _ _ _ _ 
3 | _ _ _ P Q N P _ 
2 | _ _ _ B _ _ K R 
1 | N _ _ _ _ B _ _ 
-------------------
  | A B C D E F G H 

Turn of: black
Succesful move
e5d4
8 | R _ B _ K _ _ R 
7 | P P P P _ P P P 
6 | _ _ _ _ _ _ _ _ 
5 | _ _ _ _ _ _ _ P 
4 | _ N _ P _ _ _ _ 
3 | _ _ _ P Q N P _ 
2 | _ _ _ B _ _ K R 
1 | N _ _ _ _ B _ _ 
-------------------
  | A B C D E F G H 

Turn of: white
Succesful move
f3g1
8 | R _ B _ K _ _ R 
7 | P P P P _ P P P 
6 | _ _ _ _ _ _ _ _ 
5 | _ _ _ _ _ _ _ P 
4 | _ N _ P _ _ _ _ 
3 | _ _ _ P Q _ P _ 
2 | _ _ _ B _ _ K R 
1 | N _ _ _ _ B N _ 
-------------------
  | A B C D E F G H 

Turn of: black
Succesful move
e3e1
8 | R _ B _ K _ _ R 
7 | P P P P _ P P P 
6 | _ _ _ _ _ _ _ _ 
5 | _ _ _ _ _ _ _ P 
4 | _ N _ P _ _ _ _ 
3 | _ _ _ P _ _ P _ 
2 | _ _ _ B _ _ K R 
1 | N _ _ _ Q B N _ 
-------------------
  | A B C D E F G H 

Turn of: white
Succesful move
h2h1
8 | R _ B _ K _ _ R 
7 | P P P P _ P P P 
6 | _ _ _ _ _ _ _ _ 
5 | _ _ _ _ _ _ _ P 
4 | _ N _ P _ _ _ _ 
3 | _ _ _ P _ _ P _ 
2 | _ _ _ B _ _ K _ 
1 | N _ _ _ Q B N R 
-------------------
  | A B C D E F G H 

Turn of: black
Succesful move
a1b3
8 | R _ B _ K _ _ R 
7 | P P P P _ P P P 
6 | _ _ _ _ _ _ _ _ 
5 | _ _ _ _ _ _ _ P 
4 | _ N _ P _ _ _ _ 
3 | _ N _ P _ _ P _ 
2 | _ _ _ B _ _ K _ 
1 | _ _ _ _ Q B N R 
-------------------
  | A B C D E F G H 

Turn of: white
Succesful move
h1h2
8 | R _ B _ K _ _ R 
7 | P P P P _ P P P 
6 | _ _ _ _ _ _ _ _ 
5 | _ _ _ _ _ _ _ P 
4 | _ N _ P _ _ _ _ 
3 | _ N _ P _ _ P _ 
2 | _ _ _ B _ _ K R 
1 | _ _ _ _ Q B N _ 
-------------------
  | A B C D E F G H 

Turn of: black
Succesful move
b4d5
8 | R _ B _ K _ _ R 
7 | P P P P _ P P P 
6 | _ _ _ _ _ _ _ _ 
5 | _ _ _ N _ _ _ P 
4 | _ _ _ P _ _ _ _ 
3 | _ N _ P _ _ P _ 
2 | _ _ _ B _ _ K R 
1 | _ _ _ _ Q B N _ 
-------------------
  | A B C D E F G H 

Turn of: white
Succesful move
g1h3
8 | R _ B _ K _ _ R 
7 | P P P P _ P P P 
6 | _ _ _ _ _ _ _ _ 
5 | _ _ _ N _ _ _ P 
4 | _ _ _ P _ _ _ _ 
3 | _ N _ P _ _ P N 
2 | _ _ _ B _ _ K R 
1 | _ _ _ _ Q B _ _ 
-------------------
  | A B C D E F G H 

Turn of: black
Succesful move
b3c5
8 | R _ B _ K _ _ R 
7 | P P P P _ P P P 
6 | _ _ _ _ _ _ _ _ 
5 | _ _ N N _ _ _ P 
4 | _ _ _ P _ _ _ _ 
3 | _ _ _ P _ _ P N 
2 | _ _ _ B _ _ K R 
1 | _ _ _ _ Q B _ _ 
-------------------
  | A B C D E F G H 

Turn of: white
Succesful move
h2h1
8 | R _ B _ K _ _ R 
7 | P P P P _ P P P 
6 | _ _ _ _ _ _ _ _ 
5 | _ _ N N _ _ _ P 
4 | _ _ _ P _ _ _ _ 
3 | _ _ _ P _ _ P N 
2 | _ _ _ B _ _ K _ 
1 | _ _ _ _ Q B _ R 
-------------------
  | A B C D E F G H 

Turn of: black
Succesful move
e8f8
8 | R _ B _ _ K _ R 
7 | P P P P _ P P P 
6 | _ _ _ _ _ _ _ _ 
5 | _ _ N N _ _ _ P 
4 | _ _ _ P _ _ _ _ 
3 | _ _ _ P _ _ P N 
2 | _ _ _ B _ _ K _ 
1 | _ _ _ _ Q B _ R 
-------------------
  | A B C D E F G H 

Turn of: white
Succesful move
f1e2
8 | R _ B _ _ K _ R 
7 | P P P P _ P P P 
6 | _ _ _ _ _ _ _ _ 
5 | _ _ N N _ _ _ P 
4 | _ _ _ P _ _ _ _ 
3 | _ _ _ P _ _ P N 
2 | _ _ _ B B _ K _ 
1 | _ _ _ _ Q _ _ R 
-------------------
  | A B C D E F G H 

Turn of: black
Succesful move
d5e3
8 | R _ B _ _ K _ R 
7 | P P P P _ P P P 
6 | _ _ _ _ _ _ _ _ 
5 | _ _ N _ _ _ _ P 
4 | _ _ _ P _ _ _ _ 
3 | _ _ _ P N _ P N 
2 | _ _ _ B B _ K _ 
1 | _ _ _ _ Q _ _ R 
-------------------
  | A B C D E F G H 

Turn of: white
Succesful move
g2f3
8 | R _ B _ _ K _ R 
7 | P P P P _ P P P 
6 | _ _ _ _ _ _ _ _ 
5 | _ _ N _ _ _ _ P 
4 | _ _ _ P _ _ _ _ 
3 | _ _ _ P N K P N 
2 | _ _ _ B B _ _ _ 
1 | _ _ _ _ Q _ _ R 
-------------------
  | A B C D E F G H 

Turn of: black
Succesful move
e1h1
8 | R _ B _ _ K _ R 
7 | P P P P _ P P P 
6 | _ _ _ _ _ _ _ _ 
5 | _ _ N _ _ _ _ P 
4 | _ _ _ P _ _ _ _ 
3 | _ _ _ P N K P N 
2 | _ _ _ B B _ _ _ 
1 | _ _ _ _ _ _ _ Q 
-------------------
  | A B C D E F G H 

We are playing as White
Move history:
g2g3
b8c6
d2d3
c6d4
f2f4
g8f6
f4f5
d4f5
b1a3
f5d4
h2h4
f6d5
d1d2
d5b6
d2c3
e7e5
h4h5
b6d5
c3d2
f8b4
d2c3
d5c3
c1d2
c3a2
a3b5
d4c2
e1f2
c2a1
h1h2
b4d2
b2b4
d8f6
g1f3
f6b6
e2e3
b6e3
f2g2
a2b4
b5d4
e5d4
f3g1
e3e1
h2h1
a1b3
h1h2
b4d5
g1h3
b3c5
h2h1
e8f8
f1e2
d5e3
g2f3
e1h1
8 | R _ B _ _ K _ R 
7 | P P P P _ P P P 
6 | _ _ _ _ _ _ _ _ 
5 | _ _ N _ _ _ _ P 
4 | _ _ _ P _ _ _ _ 
3 | _ _ _ P N K P N 
2 | _ _ _ B B _ _ _ 
1 | _ _ _ _ _ _ _ Q 
-------------------
  | A B C D E F G H 

It is white's turn to play.
AI's move: f3f2
Move written: f3f2
[32;1m[Game] [0mPlayer's error code: 0
[32;1m[Game] [0mChecking move validity...
[32;1m[Board] [0mInitializing board...
[32;1m[Board] [0mLoading history file `championship/lizzie-iii-blueherring/history.csv`...
[32;1m[Board] [0mLoaded 54 move(s).
[32;1m[Board] [0mLoading move file `championship/lizzie-iii-blueherring/move.csv`...
[32;1m[Board] [0mWhite player is playing f3 to f2.
[32;1m[Board] [0m
[32;1m[Board] [0m    a b c d e f g h 
[32;1m[Board] [0m  -------------------
[32;1m[Board] [0m8 ||[30;1mr[0m| |[30;1mb[0m| |[7;1m [0m|[30;1mK[0m|[7;1m [0m|[30;1mr[0m|| 8
[32;1m[Board] [0m  -------------------
[32;1m[Board] [0m7 ||[30;1mp[0m|[30;1mp[0m|[30;1mp[0m|[30;1mp[0m| |[30;1mp[0m|[30;1mp[0m|[30;1mp[0m|| 7
[32;1m[Board] [0m  -------------------
[32;1m[Board] [0m6 ||[7;1m [0m| |[7;1m [0m| |[7;1m [0m| |[7;1m [0m| || 6
[32;1m[Board] [0m  -------------------
[32;1m[Board] [0m5 || |[7;1m [0m|[30;1mk[0m|[7;1m [0m| |[7;1m [0m| |[0;1mp[0m|| 5
[32;1m[Board] [0m  -------------------
[32;1m[Board] [0m4 ||[7;1m [0m| |[7;1m [0m|[30;1mp[0m|[7;1m [0m| |[7;1m [0m| || 4
[32;1m[Board] [0m  -------------------
[32;1m[Board] [0m3 || |[7;1m [0m| |[0;1mp[0m|[30;1mk[0m|[7;1m [0m|[0;1mp[0m|[0;1mk[0m|| 3
[32;1m[Board] [0m  -------------------
[32;1m[Board] [0m2 ||[7;1m [0m| |[7;1m [0m|[30;1mb[0m|[0;1mb[0m|[0;1mK[0m|[7;1m [0m| || 2
[32;1m[Board] [0m  -------------------
[32;1m[Board] [0m1 || |[7;1m [0m| |[7;1m [0m| |[7;1m [0m| |[30;1mQ[0m|| 1
[32;1m[Board] [0m  -------------------
[32;1m[Board] [0m    a b c d e f g h
[32;1m[Board] [0m
[32;1m[Referee] [0mThis is the turn of the Black player...
[32;1m[Game] [0mPlayer's error code: 0
[32;1m[Game] [0mChecking move validity...
[32;1m[Board] [0mInitializing board...
[32;1m[Board] [0mLoading history file `championship/lizzie-iii-blueherring/history.csv`...
[32;1m[Board] [0mLoaded 55 move(s).
[32;1m[Board] [0mLoading move file `championship/lizzie-iii-blueherring/move.csv`...
[32;1m[Board] [0mBlack player is playing d2 to e1.
[32;1m[Board] [0m
[32;1m[Board] [0m    a b c d e f g h 
[32;1m[Board] [0m  -------------------
[32;1m[Board] [0m8 ||[30;1mr[0m| |[30;1mb[0m| |[7;1m [0m|[30;1mK[0m|[7;1m [0m|[30;1mr[0m|| 8
[32;1m[Board] [0m  -------------------
[32;1m[Board] [0m7 ||[30;1mp[0m|[30;1mp[0m|[30;1mp[0m|[30;1mp[0m| |[30;1mp[0m|[30;1mp[0m|[30;1mp[0m|| 7
[32;1m[Board] [0m  -------------------
[32;1m[Board] [0m6 ||[7;1m [0m| |[7;1m [0m| |[7;1m [0m| |[7;1m [0m| || 6
[32;1m[Board] [0m  -------------------
[32;1m[Board] [0m5 || |[7;1m [0m|[30;1mk[0m|[7;1m [0m| |[7;1m [0m| |[0;1mp[0m|| 5
[32;1m[Board] [0m  -------------------
[32;1m[Board] [0m4 ||[7;1m [0m| |[7;1m [0m|[30;1mp[0m|[7;1m [0m| |[7;1m [0m| || 4
[32;1m[Board] [0m  -------------------
[32;1m[Board] [0m3 || |[7;1m [0m| |[0;1mp[0m|[30;1mk[0m|[7;1m [0m|[0;1mp[0m|[0;1mk[0m|| 3
[32;1m[Board] [0m  -------------------
[32;1m[Board] [0m2 ||[7;1m [0m| |[7;1m [0m| |[0;1mb[0m|[0;1mK[0m|[7;1m [0m| || 2
[32;1m[Board] [0m  -------------------
[32;1m[Board] [0m1 || |[7;1m [0m| |[7;1m [0m|[30;1mb[0m|[7;1m [0m| |[30;1mQ[0m|| 1
[32;1m[Board] [0m  -------------------
[32;1m[Board] [0m    a b c d e f g h
[32;1m[Board] [0m
[32;1m[Referee] [0mThis is the turn of the White player...
[32;1m[Board] [0m[33;1m[WARNING][0m [5;1mWhite King in checkmate![0m
[32;1m[Board] [0m[33;1m[WARNING][0m The Black player wins!
