[32;1m[Board] [0mInitializing board...
[32;1m[Board] [0m
[32;1m[Board] [0m    a b c d e f g h 
[32;1m[Board] [0m  -------------------
[32;1m[Board] [0m8 ||[30;1mr[0m|[30;1mk[0m|[30;1mb[0m|[30;1mQ[0m|[30;1mK[0m|[30;1mb[0m|[30;1mk[0m|[30;1mr[0m|| 8
[32;1m[Board] [0m  -------------------
[32;1m[Board] [0m7 ||[30;1mp[0m|[30;1mp[0m|[30;1mp[0m|[30;1mp[0m|[30;1mp[0m|[30;1mp[0m|[30;1mp[0m|[30;1mp[0m|| 7
[32;1m[Board] [0m  -------------------
[32;1m[Board] [0m6 ||[7;1m [0m| |[7;1m [0m| |[7;1m [0m| |[7;1m [0m| || 6
[32;1m[Board] [0m  -------------------
[32;1m[Board] [0m5 || |[7;1m [0m| |[7;1m [0m| |[7;1m [0m| |[7;1m [0m|| 5
[32;1m[Board] [0m  -------------------
[32;1m[Board] [0m4 ||[7;1m [0m| |[7;1m [0m| |[7;1m [0m| |[7;1m [0m| || 4
[32;1m[Board] [0m  -------------------
[32;1m[Board] [0m3 || |[7;1m [0m| |[7;1m [0m| |[7;1m [0m| |[7;1m [0m|| 3
[32;1m[Board] [0m  -------------------
[32;1m[Board] [0m2 ||[0;1mp[0m|[0;1mp[0m|[0;1mp[0m|[0;1mp[0m|[0;1mp[0m|[0;1mp[0m|[0;1mp[0m|[0;1mp[0m|| 2
[32;1m[Board] [0m  -------------------
[32;1m[Board] [0m1 ||[0;1mr[0m|[0;1mk[0m|[0;1mb[0m|[0;1mQ[0m|[0;1mK[0m|[0;1mb[0m|[0;1mk[0m|[0;1mr[0m|| 1
[32;1m[Board] [0m  -------------------
[32;1m[Board] [0m    a b c d e f g h
[32;1m[Board] [0m
[32;1m[Referee] [0mThis is the turn of the White player...
Input file: championship/lizzie-iii-alabtros/history.csv
Output file: championship/lizzie-iii-alabtros/move.csv
We are playing as White
Move history:
8 | R N B Q K B N R 
7 | P P P P P P P P 
6 | _ _ _ _ _ _ _ _ 
5 | _ _ _ _ _ _ _ _ 
4 | _ _ _ _ _ _ _ _ 
3 | _ _ _ _ _ _ _ _ 
2 | P P P P P P P P 
1 | R N B Q K B N R 
-------------------
  | A B C D E F G H 

It is white's turn to play.
AI's move: h2h4
Move written: h2h4
[32;1m[Game] [0mPlayer's error code: 0
[32;1m[Game] [0mChecking move validity...
[32;1m[Board] [0mInitializing board...
[32;1m[Board] [0mLoading history file `championship/lizzie-iii-alabtros/history.csv`...
[32;1m[Board] [0mLoaded 0 move(s).
[32;1m[Board] [0mLoading move file `championship/lizzie-iii-alabtros/move.csv`...
[32;1m[Board] [0mWhite player is playing h2 to h4.
[32;1m[Board] [0m
[32;1m[Board] [0m    a b c d e f g h 
[32;1m[Board] [0m  -------------------
[32;1m[Board] [0m8 ||[30;1mr[0m|[30;1mk[0m|[30;1mb[0m|[30;1mQ[0m|[30;1mK[0m|[30;1mb[0m|[30;1mk[0m|[30;1mr[0m|| 8
[32;1m[Board] [0m  -------------------
[32;1m[Board] [0m7 ||[30;1mp[0m|[30;1mp[0m|[30;1mp[0m|[30;1mp[0m|[30;1mp[0m|[30;1mp[0m|[30;1mp[0m|[30;1mp[0m|| 7
[32;1m[Board] [0m  -------------------
[32;1m[Board] [0m6 ||[7;1m [0m| |[7;1m [0m| |[7;1m [0m| |[7;1m [0m| || 6
[32;1m[Board] [0m  -------------------
[32;1m[Board] [0m5 || |[7;1m [0m| |[7;1m [0m| |[7;1m [0m| |[7;1m [0m|| 5
[32;1m[Board] [0m  -------------------
[32;1m[Board] [0m4 ||[7;1m [0m| |[7;1m [0m| |[7;1m [0m| |[7;1m [0m|[0;1mp[0m|| 4
[32;1m[Board] [0m  -------------------
[32;1m[Board] [0m3 || |[7;1m [0m| |[7;1m [0m| |[7;1m [0m| |[7;1m [0m|| 3
[32;1m[Board] [0m  -------------------
[32;1m[Board] [0m2 ||[0;1mp[0m|[0;1mp[0m|[0;1mp[0m|[0;1mp[0m|[0;1mp[0m|[0;1mp[0m|[0;1mp[0m| || 2
[32;1m[Board] [0m  -------------------
[32;1m[Board] [0m1 ||[0;1mr[0m|[0;1mk[0m|[0;1mb[0m|[0;1mQ[0m|[0;1mK[0m|[0;1mb[0m|[0;1mk[0m|[0;1mr[0m|| 1
[32;1m[Board] [0m  -------------------
[32;1m[Board] [0m    a b c d e f g h
[32;1m[Board] [0m
[32;1m[Referee] [0mThis is the turn of the Black player...
8| r n b q k b n r 
7| p p p p p p p p 
6| . . . . . . . . 
5| . . . . . . . . 
4| . . . . . . . P 
3| . . . . . . . . 
2| P P P P P P P . 
1| R N B Q K B N R 
-| A|B|C|D|E|F|G|H
a7a6
a7a5
b7b6
b7b5
c7c6
c7c5
d7d6
d7d5
e7e6
e7e5
f7f6
f7f5
g7g6
g7g5
h7h6
h7h5
b8a6
b8c6
g8f6
g8h6
[32;1m[Game] [0mPlayer's error code: 0
[32;1m[Game] [0mChecking move validity...
[32;1m[Board] [0mInitializing board...
[32;1m[Board] [0mLoading history file `championship/lizzie-iii-alabtros/history.csv`...
[32;1m[Board] [0mLoaded 1 move(s).
[32;1m[Board] [0mLoading move file `championship/lizzie-iii-alabtros/move.csv`...
[32;1m[Board] [0mBlack player is playing b8 to c6.
[32;1m[Board] [0m
[32;1m[Board] [0m    a b c d e f g h 
[32;1m[Board] [0m  -------------------
[32;1m[Board] [0m8 ||[30;1mr[0m| |[30;1mb[0m|[30;1mQ[0m|[30;1mK[0m|[30;1mb[0m|[30;1mk[0m|[30;1mr[0m|| 8
[32;1m[Board] [0m  -------------------
[32;1m[Board] [0m7 ||[30;1mp[0m|[30;1mp[0m|[30;1mp[0m|[30;1mp[0m|[30;1mp[0m|[30;1mp[0m|[30;1mp[0m|[30;1mp[0m|| 7
[32;1m[Board] [0m  -------------------
[32;1m[Board] [0m6 ||[7;1m [0m| |[30;1mk[0m| |[7;1m [0m| |[7;1m [0m| || 6
[32;1m[Board] [0m  -------------------
[32;1m[Board] [0m5 || |[7;1m [0m| |[7;1m [0m| |[7;1m [0m| |[7;1m [0m|| 5
[32;1m[Board] [0m  -------------------
[32;1m[Board] [0m4 ||[7;1m [0m| |[7;1m [0m| |[7;1m [0m| |[7;1m [0m|[0;1mp[0m|| 4
[32;1m[Board] [0m  -------------------
[32;1m[Board] [0m3 || |[7;1m [0m| |[7;1m [0m| |[7;1m [0m| |[7;1m [0m|| 3
[32;1m[Board] [0m  -------------------
[32;1m[Board] [0m2 ||[0;1mp[0m|[0;1mp[0m|[0;1mp[0m|[0;1mp[0m|[0;1mp[0m|[0;1mp[0m|[0;1mp[0m| || 2
[32;1m[Board] [0m  -------------------
[32;1m[Board] [0m1 ||[0;1mr[0m|[0;1mk[0m|[0;1mb[0m|[0;1mQ[0m|[0;1mK[0m|[0;1mb[0m|[0;1mk[0m|[0;1mr[0m|| 1
[32;1m[Board] [0m  -------------------
[32;1m[Board] [0m    a b c d e f g h
[32;1m[Board] [0m
[32;1m[Referee] [0mThis is the turn of the White player...
Input file: championship/lizzie-iii-alabtros/history.csv
Output file: championship/lizzie-iii-alabtros/move.csv
Turn of: white
Succesful move
h2h4
8 | R N B Q K B N R 
7 | P P P P P P P P 
6 | _ _ _ _ _ _ _ _ 
5 | _ _ _ _ _ _ _ _ 
4 | _ _ _ _ _ _ _ P 
3 | _ _ _ _ _ _ _ _ 
2 | P P P P P P P _ 
1 | R N B Q K B N R 
-------------------
  | A B C D E F G H 

Turn of: black
Succesful move
b8c6
8 | R _ B Q K B N R 
7 | P P P P P P P P 
6 | _ _ N _ _ _ _ _ 
5 | _ _ _ _ _ _ _ _ 
4 | _ _ _ _ _ _ _ P 
3 | _ _ _ _ _ _ _ _ 
2 | P P P P P P P _ 
1 | R N B Q K B N R 
-------------------
  | A B C D E F G H 

We are playing as White
Move history:
h2h4
b8c6
8 | R _ B Q K B N R 
7 | P P P P P P P P 
6 | _ _ N _ _ _ _ _ 
5 | _ _ _ _ _ _ _ _ 
4 | _ _ _ _ _ _ _ P 
3 | _ _ _ _ _ _ _ _ 
2 | P P P P P P P _ 
1 | R N B Q K B N R 
-------------------
  | A B C D E F G H 

It is white's turn to play.
AI's move: b1c3
Move written: b1c3
[32;1m[Game] [0mPlayer's error code: 0
[32;1m[Game] [0mChecking move validity...
[32;1m[Board] [0mInitializing board...
[32;1m[Board] [0mLoading history file `championship/lizzie-iii-alabtros/history.csv`...
[32;1m[Board] [0mLoaded 2 move(s).
[32;1m[Board] [0mLoading move file `championship/lizzie-iii-alabtros/move.csv`...
[32;1m[Board] [0mWhite player is playing b1 to c3.
[32;1m[Board] [0m
[32;1m[Board] [0m    a b c d e f g h 
[32;1m[Board] [0m  -------------------
[32;1m[Board] [0m8 ||[30;1mr[0m| |[30;1mb[0m|[30;1mQ[0m|[30;1mK[0m|[30;1mb[0m|[30;1mk[0m|[30;1mr[0m|| 8
[32;1m[Board] [0m  -------------------
[32;1m[Board] [0m7 ||[30;1mp[0m|[30;1mp[0m|[30;1mp[0m|[30;1mp[0m|[30;1mp[0m|[30;1mp[0m|[30;1mp[0m|[30;1mp[0m|| 7
[32;1m[Board] [0m  -------------------
[32;1m[Board] [0m6 ||[7;1m [0m| |[30;1mk[0m| |[7;1m [0m| |[7;1m [0m| || 6
[32;1m[Board] [0m  -------------------
[32;1m[Board] [0m5 || |[7;1m [0m| |[7;1m [0m| |[7;1m [0m| |[7;1m [0m|| 5
[32;1m[Board] [0m  -------------------
[32;1m[Board] [0m4 ||[7;1m [0m| |[7;1m [0m| |[7;1m [0m| |[7;1m [0m|[0;1mp[0m|| 4
[32;1m[Board] [0m  -------------------
[32;1m[Board] [0m3 || |[7;1m [0m|[0;1mk[0m|[7;1m [0m| |[7;1m [0m| |[7;1m [0m|| 3
[32;1m[Board] [0m  -------------------
[32;1m[Board] [0m2 ||[0;1mp[0m|[0;1mp[0m|[0;1mp[0m|[0;1mp[0m|[0;1mp[0m|[0;1mp[0m|[0;1mp[0m| || 2
[32;1m[Board] [0m  -------------------
[32;1m[Board] [0m1 ||[0;1mr[0m|[7;1m [0m|[0;1mb[0m|[0;1mQ[0m|[0;1mK[0m|[0;1mb[0m|[0;1mk[0m|[0;1mr[0m|| 1
[32;1m[Board] [0m  -------------------
[32;1m[Board] [0m    a b c d e f g h
[32;1m[Board] [0m
[32;1m[Referee] [0mThis is the turn of the Black player...
8| r . b q k b n r 
7| p p p p p p p p 
6| . . n . . . . . 
5| . . . . . . . . 
4| . . . . . . . P 
3| . . N . . . . . 
2| P P P P P P P . 
1| R . B Q K B N R 
-| A|B|C|D|E|F|G|H
a7a6
a7a5
b7b6
b7b5
d7d6
d7d5
e7e6
e7e5
f7f6
f7f5
g7g6
g7g5
h7h6
h7h5
c6b4
c6d4
c6a5
c6e5
c6b8
g8f6
g8h6
a8b8
[32;1m[Game] [0mPlayer's error code: 0
[32;1m[Game] [0mChecking move validity...
[32;1m[Board] [0mInitializing board...
[32;1m[Board] [0mLoading history file `championship/lizzie-iii-alabtros/history.csv`...
[32;1m[Board] [0mLoaded 3 move(s).
[32;1m[Board] [0mLoading move file `championship/lizzie-iii-alabtros/move.csv`...
[32;1m[Board] [0mBlack player is playing c6 to a5.
[32;1m[Board] [0m
[32;1m[Board] [0m    a b c d e f g h 
[32;1m[Board] [0m  -------------------
[32;1m[Board] [0m8 ||[30;1mr[0m| |[30;1mb[0m|[30;1mQ[0m|[30;1mK[0m|[30;1mb[0m|[30;1mk[0m|[30;1mr[0m|| 8
[32;1m[Board] [0m  -------------------
[32;1m[Board] [0m7 ||[30;1mp[0m|[30;1mp[0m|[30;1mp[0m|[30;1mp[0m|[30;1mp[0m|[30;1mp[0m|[30;1mp[0m|[30;1mp[0m|| 7
[32;1m[Board] [0m  -------------------
[32;1m[Board] [0m6 ||[7;1m [0m| |[7;1m [0m| |[7;1m [0m| |[7;1m [0m| || 6
[32;1m[Board] [0m  -------------------
[32;1m[Board] [0m5 ||[30;1mk[0m|[7;1m [0m| |[7;1m [0m| |[7;1m [0m| |[7;1m [0m|| 5
[32;1m[Board] [0m  -------------------
[32;1m[Board] [0m4 ||[7;1m [0m| |[7;1m [0m| |[7;1m [0m| |[7;1m [0m|[0;1mp[0m|| 4
[32;1m[Board] [0m  -------------------
[32;1m[Board] [0m3 || |[7;1m [0m|[0;1mk[0m|[7;1m [0m| |[7;1m [0m| |[7;1m [0m|| 3
[32;1m[Board] [0m  -------------------
[32;1m[Board] [0m2 ||[0;1mp[0m|[0;1mp[0m|[0;1mp[0m|[0;1mp[0m|[0;1mp[0m|[0;1mp[0m|[0;1mp[0m| || 2
[32;1m[Board] [0m  -------------------
[32;1m[Board] [0m1 ||[0;1mr[0m|[7;1m [0m|[0;1mb[0m|[0;1mQ[0m|[0;1mK[0m|[0;1mb[0m|[0;1mk[0m|[0;1mr[0m|| 1
[32;1m[Board] [0m  -------------------
[32;1m[Board] [0m    a b c d e f g h
[32;1m[Board] [0m
[32;1m[Referee] [0mThis is the turn of the White player...
Input file: championship/lizzie-iii-alabtros/history.csv
Output file: championship/lizzie-iii-alabtros/move.csv
Turn of: white
Succesful move
h2h4
8 | R N B Q K B N R 
7 | P P P P P P P P 
6 | _ _ _ _ _ _ _ _ 
5 | _ _ _ _ _ _ _ _ 
4 | _ _ _ _ _ _ _ P 
3 | _ _ _ _ _ _ _ _ 
2 | P P P P P P P _ 
1 | R N B Q K B N R 
-------------------
  | A B C D E F G H 

Turn of: black
Succesful move
b8c6
8 | R _ B Q K B N R 
7 | P P P P P P P P 
6 | _ _ N _ _ _ _ _ 
5 | _ _ _ _ _ _ _ _ 
4 | _ _ _ _ _ _ _ P 
3 | _ _ _ _ _ _ _ _ 
2 | P P P P P P P _ 
1 | R N B Q K B N R 
-------------------
  | A B C D E F G H 

Turn of: white
Succesful move
b1c3
8 | R _ B Q K B N R 
7 | P P P P P P P P 
6 | _ _ N _ _ _ _ _ 
5 | _ _ _ _ _ _ _ _ 
4 | _ _ _ _ _ _ _ P 
3 | _ _ N _ _ _ _ _ 
2 | P P P P P P P _ 
1 | R _ B Q K B N R 
-------------------
  | A B C D E F G H 

Turn of: black
Succesful move
c6a5
8 | R _ B Q K B N R 
7 | P P P P P P P P 
6 | _ _ _ _ _ _ _ _ 
5 | N _ _ _ _ _ _ _ 
4 | _ _ _ _ _ _ _ P 
3 | _ _ N _ _ _ _ _ 
2 | P P P P P P P _ 
1 | R _ B Q K B N R 
-------------------
  | A B C D E F G H 

We are playing as White
Move history:
h2h4
b8c6
b1c3
c6a5
8 | R _ B Q K B N R 
7 | P P P P P P P P 
6 | _ _ _ _ _ _ _ _ 
5 | N _ _ _ _ _ _ _ 
4 | _ _ _ _ _ _ _ P 
3 | _ _ N _ _ _ _ _ 
2 | P P P P P P P _ 
1 | R _ B Q K B N R 
-------------------
  | A B C D E F G H 

It is white's turn to play.
AI's move: c3b5
Move written: c3b5
[32;1m[Game] [0mPlayer's error code: 0
[32;1m[Game] [0mChecking move validity...
[32;1m[Board] [0mInitializing board...
[32;1m[Board] [0mLoading history file `championship/lizzie-iii-alabtros/history.csv`...
[32;1m[Board] [0mLoaded 4 move(s).
[32;1m[Board] [0mLoading move file `championship/lizzie-iii-alabtros/move.csv`...
[32;1m[Board] [0mWhite player is playing c3 to b5.
[32;1m[Board] [0m
[32;1m[Board] [0m    a b c d e f g h 
[32;1m[Board] [0m  -------------------
[32;1m[Board] [0m8 ||[30;1mr[0m| |[30;1mb[0m|[30;1mQ[0m|[30;1mK[0m|[30;1mb[0m|[30;1mk[0m|[30;1mr[0m|| 8
[32;1m[Board] [0m  -------------------
[32;1m[Board] [0m7 ||[30;1mp[0m|[30;1mp[0m|[30;1mp[0m|[30;1mp[0m|[30;1mp[0m|[30;1mp[0m|[30;1mp[0m|[30;1mp[0m|| 7
[32;1m[Board] [0m  -------------------
[32;1m[Board] [0m6 ||[7;1m [0m| |[7;1m [0m| |[7;1m [0m| |[7;1m [0m| || 6
[32;1m[Board] [0m  -------------------
[32;1m[Board] [0m5 ||[30;1mk[0m|[0;1mk[0m| |[7;1m [0m| |[7;1m [0m| |[7;1m [0m|| 5
[32;1m[Board] [0m  -------------------
[32;1m[Board] [0m4 ||[7;1m [0m| |[7;1m [0m| |[7;1m [0m| |[7;1m [0m|[0;1mp[0m|| 4
[32;1m[Board] [0m  -------------------
[32;1m[Board] [0m3 || |[7;1m [0m| |[7;1m [0m| |[7;1m [0m| |[7;1m [0m|| 3
[32;1m[Board] [0m  -------------------
[32;1m[Board] [0m2 ||[0;1mp[0m|[0;1mp[0m|[0;1mp[0m|[0;1mp[0m|[0;1mp[0m|[0;1mp[0m|[0;1mp[0m| || 2
[32;1m[Board] [0m  -------------------
[32;1m[Board] [0m1 ||[0;1mr[0m|[7;1m [0m|[0;1mb[0m|[0;1mQ[0m|[0;1mK[0m|[0;1mb[0m|[0;1mk[0m|[0;1mr[0m|| 1
[32;1m[Board] [0m  -------------------
[32;1m[Board] [0m    a b c d e f g h
[32;1m[Board] [0m
[32;1m[Referee] [0mThis is the turn of the Black player...
8| r . b q k b n r 
7| p p p p p p p p 
6| . . . . . . . . 
5| n N . . . . . . 
4| . . . . . . . P 
3| . . . . . . . . 
2| P P P P P P P . 
1| R . B Q K B N R 
-| A|B|C|D|E|F|G|H
a7a6
b7b6
c7c6
c7c5
d7d6
d7d5
e7e6
e7e5
f7f6
f7f5
g7g6
g7g5
h7h6
h7h5
a5b3
a5c4
a5c6
g8f6
g8h6
a8b8
[32;1m[Game] [0mPlayer's error code: 0
[32;1m[Game] [0mChecking move validity...
[32;1m[Board] [0mInitializing board...
[32;1m[Board] [0mLoading history file `championship/lizzie-iii-alabtros/history.csv`...
[32;1m[Board] [0mLoaded 5 move(s).
[32;1m[Board] [0mLoading move file `championship/lizzie-iii-alabtros/move.csv`...
[32;1m[Board] [0mBlack player is playing d7 to d6.
[32;1m[Board] [0m
[32;1m[Board] [0m    a b c d e f g h 
[32;1m[Board] [0m  -------------------
[32;1m[Board] [0m8 ||[30;1mr[0m| |[30;1mb[0m|[30;1mQ[0m|[30;1mK[0m|[30;1mb[0m|[30;1mk[0m|[30;1mr[0m|| 8
[32;1m[Board] [0m  -------------------
[32;1m[Board] [0m7 ||[30;1mp[0m|[30;1mp[0m|[30;1mp[0m|[7;1m [0m|[30;1mp[0m|[30;1mp[0m|[30;1mp[0m|[30;1mp[0m|| 7
[32;1m[Board] [0m  -------------------
[32;1m[Board] [0m6 ||[7;1m [0m| |[7;1m [0m|[30;1mp[0m|[7;1m [0m| |[7;1m [0m| || 6
[32;1m[Board] [0m  -------------------
[32;1m[Board] [0m5 ||[30;1mk[0m|[0;1mk[0m| |[7;1m [0m| |[7;1m [0m| |[7;1m [0m|| 5
[32;1m[Board] [0m  -------------------
[32;1m[Board] [0m4 ||[7;1m [0m| |[7;1m [0m| |[7;1m [0m| |[7;1m [0m|[0;1mp[0m|| 4
[32;1m[Board] [0m  -------------------
[32;1m[Board] [0m3 || |[7;1m [0m| |[7;1m [0m| |[7;1m [0m| |[7;1m [0m|| 3
[32;1m[Board] [0m  -------------------
[32;1m[Board] [0m2 ||[0;1mp[0m|[0;1mp[0m|[0;1mp[0m|[0;1mp[0m|[0;1mp[0m|[0;1mp[0m|[0;1mp[0m| || 2
[32;1m[Board] [0m  -------------------
[32;1m[Board] [0m1 ||[0;1mr[0m|[7;1m [0m|[0;1mb[0m|[0;1mQ[0m|[0;1mK[0m|[0;1mb[0m|[0;1mk[0m|[0;1mr[0m|| 1
[32;1m[Board] [0m  -------------------
[32;1m[Board] [0m    a b c d e f g h
[32;1m[Board] [0m
[32;1m[Referee] [0mThis is the turn of the White player...
Input file: championship/lizzie-iii-alabtros/history.csv
Output file: championship/lizzie-iii-alabtros/move.csv
Turn of: white
Succesful move
h2h4
8 | R N B Q K B N R 
7 | P P P P P P P P 
6 | _ _ _ _ _ _ _ _ 
5 | _ _ _ _ _ _ _ _ 
4 | _ _ _ _ _ _ _ P 
3 | _ _ _ _ _ _ _ _ 
2 | P P P P P P P _ 
1 | R N B Q K B N R 
-------------------
  | A B C D E F G H 

Turn of: black
Succesful move
b8c6
8 | R _ B Q K B N R 
7 | P P P P P P P P 
6 | _ _ N _ _ _ _ _ 
5 | _ _ _ _ _ _ _ _ 
4 | _ _ _ _ _ _ _ P 
3 | _ _ _ _ _ _ _ _ 
2 | P P P P P P P _ 
1 | R N B Q K B N R 
-------------------
  | A B C D E F G H 

Turn of: white
Succesful move
b1c3
8 | R _ B Q K B N R 
7 | P P P P P P P P 
6 | _ _ N _ _ _ _ _ 
5 | _ _ _ _ _ _ _ _ 
4 | _ _ _ _ _ _ _ P 
3 | _ _ N _ _ _ _ _ 
2 | P P P P P P P _ 
1 | R _ B Q K B N R 
-------------------
  | A B C D E F G H 

Turn of: black
Succesful move
c6a5
8 | R _ B Q K B N R 
7 | P P P P P P P P 
6 | _ _ _ _ _ _ _ _ 
5 | N _ _ _ _ _ _ _ 
4 | _ _ _ _ _ _ _ P 
3 | _ _ N _ _ _ _ _ 
2 | P P P P P P P _ 
1 | R _ B Q K B N R 
-------------------
  | A B C D E F G H 

Turn of: white
Succesful move
c3b5
8 | R _ B Q K B N R 
7 | P P P P P P P P 
6 | _ _ _ _ _ _ _ _ 
5 | N N _ _ _ _ _ _ 
4 | _ _ _ _ _ _ _ P 
3 | _ _ _ _ _ _ _ _ 
2 | P P P P P P P _ 
1 | R _ B Q K B N R 
-------------------
  | A B C D E F G H 

Turn of: black
Succesful move
d7d6
8 | R _ B Q K B N R 
7 | P P P _ P P P P 
6 | _ _ _ P _ _ _ _ 
5 | N N _ _ _ _ _ _ 
4 | _ _ _ _ _ _ _ P 
3 | _ _ _ _ _ _ _ _ 
2 | P P P P P P P _ 
1 | R _ B Q K B N R 
-------------------
  | A B C D E F G H 

We are playing as White
Move history:
h2h4
b8c6
b1c3
c6a5
c3b5
d7d6
8 | R _ B Q K B N R 
7 | P P P _ P P P P 
6 | _ _ _ P _ _ _ _ 
5 | N N _ _ _ _ _ _ 
4 | _ _ _ _ _ _ _ P 
3 | _ _ _ _ _ _ _ _ 
2 | P P P P P P P _ 
1 | R _ B Q K B N R 
-------------------
  | A B C D E F G H 

It is white's turn to play.
AI's move: d2d3
Move written: d2d3
[32;1m[Game] [0mPlayer's error code: 0
[32;1m[Game] [0mChecking move validity...
[32;1m[Board] [0mInitializing board...
[32;1m[Board] [0mLoading history file `championship/lizzie-iii-alabtros/history.csv`...
[32;1m[Board] [0mLoaded 6 move(s).
[32;1m[Board] [0mLoading move file `championship/lizzie-iii-alabtros/move.csv`...
[32;1m[Board] [0mWhite player is playing d2 to d3.
[32;1m[Board] [0m
[32;1m[Board] [0m    a b c d e f g h 
[32;1m[Board] [0m  -------------------
[32;1m[Board] [0m8 ||[30;1mr[0m| |[30;1mb[0m|[30;1mQ[0m|[30;1mK[0m|[30;1mb[0m|[30;1mk[0m|[30;1mr[0m|| 8
[32;1m[Board] [0m  -------------------
[32;1m[Board] [0m7 ||[30;1mp[0m|[30;1mp[0m|[30;1mp[0m|[7;1m [0m|[30;1mp[0m|[30;1mp[0m|[30;1mp[0m|[30;1mp[0m|| 7
[32;1m[Board] [0m  -------------------
[32;1m[Board] [0m6 ||[7;1m [0m| |[7;1m [0m|[30;1mp[0m|[7;1m [0m| |[7;1m [0m| || 6
[32;1m[Board] [0m  -------------------
[32;1m[Board] [0m5 ||[30;1mk[0m|[0;1mk[0m| |[7;1m [0m| |[7;1m [0m| |[7;1m [0m|| 5
[32;1m[Board] [0m  -------------------
[32;1m[Board] [0m4 ||[7;1m [0m| |[7;1m [0m| |[7;1m [0m| |[7;1m [0m|[0;1mp[0m|| 4
[32;1m[Board] [0m  -------------------
[32;1m[Board] [0m3 || |[7;1m [0m| |[0;1mp[0m| |[7;1m [0m| |[7;1m [0m|| 3
[32;1m[Board] [0m  -------------------
[32;1m[Board] [0m2 ||[0;1mp[0m|[0;1mp[0m|[0;1mp[0m| |[0;1mp[0m|[0;1mp[0m|[0;1mp[0m| || 2
[32;1m[Board] [0m  -------------------
[32;1m[Board] [0m1 ||[0;1mr[0m|[7;1m [0m|[0;1mb[0m|[0;1mQ[0m|[0;1mK[0m|[0;1mb[0m|[0;1mk[0m|[0;1mr[0m|| 1
[32;1m[Board] [0m  -------------------
[32;1m[Board] [0m    a b c d e f g h
[32;1m[Board] [0m
[32;1m[Referee] [0mThis is the turn of the Black player...
8| r . b q k b n r 
7| p p p . p p p p 
6| . . . p . . . . 
5| n N . . . . . . 
4| . . . . . . . P 
3| . . . P . . . . 
2| P P P . P P P . 
1| R . B Q K B N R 
-| A|B|C|D|E|F|G|H
d6d5
a7a6
b7b6
c7c6
c7c5
e7e6
e7e5
f7f6
f7f5
g7g6
g7g5
h7h6
h7h5
a5b3
a5c4
a5c6
g8f6
g8h6
c8h3
c8g4
c8f5
c8e6
c8d7
a8b8
d8d7
e8d7
[32;1m[Game] [0mPlayer's error code: 0
[32;1m[Game] [0mChecking move validity...
[32;1m[Board] [0mInitializing board...
[32;1m[Board] [0mLoading history file `championship/lizzie-iii-alabtros/history.csv`...
[32;1m[Board] [0mLoaded 7 move(s).
[32;1m[Board] [0mLoading move file `championship/lizzie-iii-alabtros/move.csv`...
[32;1m[Board] [0mBlack player is playing d6 to d5.
[32;1m[Board] [0m
[32;1m[Board] [0m    a b c d e f g h 
[32;1m[Board] [0m  -------------------
[32;1m[Board] [0m8 ||[30;1mr[0m| |[30;1mb[0m|[30;1mQ[0m|[30;1mK[0m|[30;1mb[0m|[30;1mk[0m|[30;1mr[0m|| 8
[32;1m[Board] [0m  -------------------
[32;1m[Board] [0m7 ||[30;1mp[0m|[30;1mp[0m|[30;1mp[0m|[7;1m [0m|[30;1mp[0m|[30;1mp[0m|[30;1mp[0m|[30;1mp[0m|| 7
[32;1m[Board] [0m  -------------------
[32;1m[Board] [0m6 ||[7;1m [0m| |[7;1m [0m| |[7;1m [0m| |[7;1m [0m| || 6
[32;1m[Board] [0m  -------------------
[32;1m[Board] [0m5 ||[30;1mk[0m|[0;1mk[0m| |[30;1mp[0m| |[7;1m [0m| |[7;1m [0m|| 5
[32;1m[Board] [0m  -------------------
[32;1m[Board] [0m4 ||[7;1m [0m| |[7;1m [0m| |[7;1m [0m| |[7;1m [0m|[0;1mp[0m|| 4
[32;1m[Board] [0m  -------------------
[32;1m[Board] [0m3 || |[7;1m [0m| |[0;1mp[0m| |[7;1m [0m| |[7;1m [0m|| 3
[32;1m[Board] [0m  -------------------
[32;1m[Board] [0m2 ||[0;1mp[0m|[0;1mp[0m|[0;1mp[0m| |[0;1mp[0m|[0;1mp[0m|[0;1mp[0m| || 2
[32;1m[Board] [0m  -------------------
[32;1m[Board] [0m1 ||[0;1mr[0m|[7;1m [0m|[0;1mb[0m|[0;1mQ[0m|[0;1mK[0m|[0;1mb[0m|[0;1mk[0m|[0;1mr[0m|| 1
[32;1m[Board] [0m  -------------------
[32;1m[Board] [0m    a b c d e f g h
[32;1m[Board] [0m
[32;1m[Referee] [0mThis is the turn of the White player...
Input file: championship/lizzie-iii-alabtros/history.csv
Output file: championship/lizzie-iii-alabtros/move.csv
Turn of: white
Succesful move
h2h4
8 | R N B Q K B N R 
7 | P P P P P P P P 
6 | _ _ _ _ _ _ _ _ 
5 | _ _ _ _ _ _ _ _ 
4 | _ _ _ _ _ _ _ P 
3 | _ _ _ _ _ _ _ _ 
2 | P P P P P P P _ 
1 | R N B Q K B N R 
-------------------
  | A B C D E F G H 

Turn of: black
Succesful move
b8c6
8 | R _ B Q K B N R 
7 | P P P P P P P P 
6 | _ _ N _ _ _ _ _ 
5 | _ _ _ _ _ _ _ _ 
4 | _ _ _ _ _ _ _ P 
3 | _ _ _ _ _ _ _ _ 
2 | P P P P P P P _ 
1 | R N B Q K B N R 
-------------------
  | A B C D E F G H 

Turn of: white
Succesful move
b1c3
8 | R _ B Q K B N R 
7 | P P P P P P P P 
6 | _ _ N _ _ _ _ _ 
5 | _ _ _ _ _ _ _ _ 
4 | _ _ _ _ _ _ _ P 
3 | _ _ N _ _ _ _ _ 
2 | P P P P P P P _ 
1 | R _ B Q K B N R 
-------------------
  | A B C D E F G H 

Turn of: black
Succesful move
c6a5
8 | R _ B Q K B N R 
7 | P P P P P P P P 
6 | _ _ _ _ _ _ _ _ 
5 | N _ _ _ _ _ _ _ 
4 | _ _ _ _ _ _ _ P 
3 | _ _ N _ _ _ _ _ 
2 | P P P P P P P _ 
1 | R _ B Q K B N R 
-------------------
  | A B C D E F G H 

Turn of: white
Succesful move
c3b5
8 | R _ B Q K B N R 
7 | P P P P P P P P 
6 | _ _ _ _ _ _ _ _ 
5 | N N _ _ _ _ _ _ 
4 | _ _ _ _ _ _ _ P 
3 | _ _ _ _ _ _ _ _ 
2 | P P P P P P P _ 
1 | R _ B Q K B N R 
-------------------
  | A B C D E F G H 

Turn of: black
Succesful move
d7d6
8 | R _ B Q K B N R 
7 | P P P _ P P P P 
6 | _ _ _ P _ _ _ _ 
5 | N N _ _ _ _ _ _ 
4 | _ _ _ _ _ _ _ P 
3 | _ _ _ _ _ _ _ _ 
2 | P P P P P P P _ 
1 | R _ B Q K B N R 
-------------------
  | A B C D E F G H 

Turn of: white
Succesful move
d2d3
8 | R _ B Q K B N R 
7 | P P P _ P P P P 
6 | _ _ _ P _ _ _ _ 
5 | N N _ _ _ _ _ _ 
4 | _ _ _ _ _ _ _ P 
3 | _ _ _ P _ _ _ _ 
2 | P P P _ P P P _ 
1 | R _ B Q K B N R 
-------------------
  | A B C D E F G H 

Turn of: black
Succesful move
d6d5
8 | R _ B Q K B N R 
7 | P P P _ P P P P 
6 | _ _ _ _ _ _ _ _ 
5 | N N _ P _ _ _ _ 
4 | _ _ _ _ _ _ _ P 
3 | _ _ _ P _ _ _ _ 
2 | P P P _ P P P _ 
1 | R _ B Q K B N R 
-------------------
  | A B C D E F G H 

We are playing as White
Move history:
h2h4
b8c6
b1c3
c6a5
c3b5
d7d6
d2d3
d6d5
8 | R _ B Q K B N R 
7 | P P P _ P P P P 
6 | _ _ _ _ _ _ _ _ 
5 | N N _ P _ _ _ _ 
4 | _ _ _ _ _ _ _ P 
3 | _ _ _ P _ _ _ _ 
2 | P P P _ P P P _ 
1 | R _ B Q K B N R 
-------------------
  | A B C D E F G H 

It is white's turn to play.
AI's move: a2a4
Move written: a2a4
[32;1m[Game] [0mPlayer's error code: 0
[32;1m[Game] [0mChecking move validity...
[32;1m[Board] [0mInitializing board...
[32;1m[Board] [0mLoading history file `championship/lizzie-iii-alabtros/history.csv`...
[32;1m[Board] [0mLoaded 8 move(s).
[32;1m[Board] [0mLoading move file `championship/lizzie-iii-alabtros/move.csv`...
[32;1m[Board] [0mWhite player is playing a2 to a4.
[32;1m[Board] [0m
[32;1m[Board] [0m    a b c d e f g h 
[32;1m[Board] [0m  -------------------
[32;1m[Board] [0m8 ||[30;1mr[0m| |[30;1mb[0m|[30;1mQ[0m|[30;1mK[0m|[30;1mb[0m|[30;1mk[0m|[30;1mr[0m|| 8
[32;1m[Board] [0m  -------------------
[32;1m[Board] [0m7 ||[30;1mp[0m|[30;1mp[0m|[30;1mp[0m|[7;1m [0m|[30;1mp[0m|[30;1mp[0m|[30;1mp[0m|[30;1mp[0m|| 7
[32;1m[Board] [0m  -------------------
[32;1m[Board] [0m6 ||[7;1m [0m| |[7;1m [0m| |[7;1m [0m| |[7;1m [0m| || 6
[32;1m[Board] [0m  -------------------
[32;1m[Board] [0m5 ||[30;1mk[0m|[0;1mk[0m| |[30;1mp[0m| |[7;1m [0m| |[7;1m [0m|| 5
[32;1m[Board] [0m  -------------------
[32;1m[Board] [0m4 ||[0;1mp[0m| |[7;1m [0m| |[7;1m [0m| |[7;1m [0m|[0;1mp[0m|| 4
[32;1m[Board] [0m  -------------------
[32;1m[Board] [0m3 || |[7;1m [0m| |[0;1mp[0m| |[7;1m [0m| |[7;1m [0m|| 3
[32;1m[Board] [0m  -------------------
[32;1m[Board] [0m2 ||[7;1m [0m|[0;1mp[0m|[0;1mp[0m| |[0;1mp[0m|[0;1mp[0m|[0;1mp[0m| || 2
[32;1m[Board] [0m  -------------------
[32;1m[Board] [0m1 ||[0;1mr[0m|[7;1m [0m|[0;1mb[0m|[0;1mQ[0m|[0;1mK[0m|[0;1mb[0m|[0;1mk[0m|[0;1mr[0m|| 1
[32;1m[Board] [0m  -------------------
[32;1m[Board] [0m    a b c d e f g h
[32;1m[Board] [0m
[32;1m[Referee] [0mThis is the turn of the Black player...
8| r . b q k b n r 
7| p p p . p p p p 
6| . . . . . . . . 
5| n N . p . . . . 
4| P . . . . . . P 
3| . . . P . . . . 
2| . P P . P P P . 
1| R . B Q K B N R 
-| A|B|C|D|E|F|G|H
d5d4
a7a6
b7b6
c7c6
c7c5
e7e6
e7e5
f7f6
f7f5
g7g6
g7g5
h7h6
h7h5
a5b3
a5c4
a5c6
g8f6
g8h6
c8h3
c8g4
c8f5
c8e6
c8d7
a8b8
d8d6
d8d7
e8d7
[32;1m[Game] [0mPlayer's error code: 0
[32;1m[Game] [0mChecking move validity...
[32;1m[Board] [0mInitializing board...
[32;1m[Board] [0mLoading history file `championship/lizzie-iii-alabtros/history.csv`...
[32;1m[Board] [0mLoaded 9 move(s).
[32;1m[Board] [0mLoading move file `championship/lizzie-iii-alabtros/move.csv`...
[32;1m[Board] [0mBlack player is playing c7 to c6.
[32;1m[Board] [0m
[32;1m[Board] [0m    a b c d e f g h 
[32;1m[Board] [0m  -------------------
[32;1m[Board] [0m8 ||[30;1mr[0m| |[30;1mb[0m|[30;1mQ[0m|[30;1mK[0m|[30;1mb[0m|[30;1mk[0m|[30;1mr[0m|| 8
[32;1m[Board] [0m  -------------------
[32;1m[Board] [0m7 ||[30;1mp[0m|[30;1mp[0m| |[7;1m [0m|[30;1mp[0m|[30;1mp[0m|[30;1mp[0m|[30;1mp[0m|| 7
[32;1m[Board] [0m  -------------------
[32;1m[Board] [0m6 ||[7;1m [0m| |[30;1mp[0m| |[7;1m [0m| |[7;1m [0m| || 6
[32;1m[Board] [0m  -------------------
[32;1m[Board] [0m5 ||[30;1mk[0m|[0;1mk[0m| |[30;1mp[0m| |[7;1m [0m| |[7;1m [0m|| 5
[32;1m[Board] [0m  -------------------
[32;1m[Board] [0m4 ||[0;1mp[0m| |[7;1m [0m| |[7;1m [0m| |[7;1m [0m|[0;1mp[0m|| 4
[32;1m[Board] [0m  -------------------
[32;1m[Board] [0m3 || |[7;1m [0m| |[0;1mp[0m| |[7;1m [0m| |[7;1m [0m|| 3
[32;1m[Board] [0m  -------------------
[32;1m[Board] [0m2 ||[7;1m [0m|[0;1mp[0m|[0;1mp[0m| |[0;1mp[0m|[0;1mp[0m|[0;1mp[0m| || 2
[32;1m[Board] [0m  -------------------
[32;1m[Board] [0m1 ||[0;1mr[0m|[7;1m [0m|[0;1mb[0m|[0;1mQ[0m|[0;1mK[0m|[0;1mb[0m|[0;1mk[0m|[0;1mr[0m|| 1
[32;1m[Board] [0m  -------------------
[32;1m[Board] [0m    a b c d e f g h
[32;1m[Board] [0m
[32;1m[Referee] [0mThis is the turn of the White player...
Input file: championship/lizzie-iii-alabtros/history.csv
Output file: championship/lizzie-iii-alabtros/move.csv
Turn of: white
Succesful move
h2h4
8 | R N B Q K B N R 
7 | P P P P P P P P 
6 | _ _ _ _ _ _ _ _ 
5 | _ _ _ _ _ _ _ _ 
4 | _ _ _ _ _ _ _ P 
3 | _ _ _ _ _ _ _ _ 
2 | P P P P P P P _ 
1 | R N B Q K B N R 
-------------------
  | A B C D E F G H 

Turn of: black
Succesful move
b8c6
8 | R _ B Q K B N R 
7 | P P P P P P P P 
6 | _ _ N _ _ _ _ _ 
5 | _ _ _ _ _ _ _ _ 
4 | _ _ _ _ _ _ _ P 
3 | _ _ _ _ _ _ _ _ 
2 | P P P P P P P _ 
1 | R N B Q K B N R 
-------------------
  | A B C D E F G H 

Turn of: white
Succesful move
b1c3
8 | R _ B Q K B N R 
7 | P P P P P P P P 
6 | _ _ N _ _ _ _ _ 
5 | _ _ _ _ _ _ _ _ 
4 | _ _ _ _ _ _ _ P 
3 | _ _ N _ _ _ _ _ 
2 | P P P P P P P _ 
1 | R _ B Q K B N R 
-------------------
  | A B C D E F G H 

Turn of: black
Succesful move
c6a5
8 | R _ B Q K B N R 
7 | P P P P P P P P 
6 | _ _ _ _ _ _ _ _ 
5 | N _ _ _ _ _ _ _ 
4 | _ _ _ _ _ _ _ P 
3 | _ _ N _ _ _ _ _ 
2 | P P P P P P P _ 
1 | R _ B Q K B N R 
-------------------
  | A B C D E F G H 

Turn of: white
Succesful move
c3b5
8 | R _ B Q K B N R 
7 | P P P P P P P P 
6 | _ _ _ _ _ _ _ _ 
5 | N N _ _ _ _ _ _ 
4 | _ _ _ _ _ _ _ P 
3 | _ _ _ _ _ _ _ _ 
2 | P P P P P P P _ 
1 | R _ B Q K B N R 
-------------------
  | A B C D E F G H 

Turn of: black
Succesful move
d7d6
8 | R _ B Q K B N R 
7 | P P P _ P P P P 
6 | _ _ _ P _ _ _ _ 
5 | N N _ _ _ _ _ _ 
4 | _ _ _ _ _ _ _ P 
3 | _ _ _ _ _ _ _ _ 
2 | P P P P P P P _ 
1 | R _ B Q K B N R 
-------------------
  | A B C D E F G H 

Turn of: white
Succesful move
d2d3
8 | R _ B Q K B N R 
7 | P P P _ P P P P 
6 | _ _ _ P _ _ _ _ 
5 | N N _ _ _ _ _ _ 
4 | _ _ _ _ _ _ _ P 
3 | _ _ _ P _ _ _ _ 
2 | P P P _ P P P _ 
1 | R _ B Q K B N R 
-------------------
  | A B C D E F G H 

Turn of: black
Succesful move
d6d5
8 | R _ B Q K B N R 
7 | P P P _ P P P P 
6 | _ _ _ _ _ _ _ _ 
5 | N N _ P _ _ _ _ 
4 | _ _ _ _ _ _ _ P 
3 | _ _ _ P _ _ _ _ 
2 | P P P _ P P P _ 
1 | R _ B Q K B N R 
-------------------
  | A B C D E F G H 

Turn of: white
Succesful move
a2a4
8 | R _ B Q K B N R 
7 | P P P _ P P P P 
6 | _ _ _ _ _ _ _ _ 
5 | N N _ P _ _ _ _ 
4 | P _ _ _ _ _ _ P 
3 | _ _ _ P _ _ _ _ 
2 | _ P P _ P P P _ 
1 | R _ B Q K B N R 
-------------------
  | A B C D E F G H 

Turn of: black
Succesful move
c7c6
8 | R _ B Q K B N R 
7 | P P _ _ P P P P 
6 | _ _ P _ _ _ _ _ 
5 | N N _ P _ _ _ _ 
4 | P _ _ _ _ _ _ P 
3 | _ _ _ P _ _ _ _ 
2 | _ P P _ P P P _ 
1 | R _ B Q K B N R 
-------------------
  | A B C D E F G H 

We are playing as White
Move history:
h2h4
b8c6
b1c3
c6a5
c3b5
d7d6
d2d3
d6d5
a2a4
c7c6
8 | R _ B Q K B N R 
7 | P P _ _ P P P P 
6 | _ _ P _ _ _ _ _ 
5 | N N _ P _ _ _ _ 
4 | P _ _ _ _ _ _ P 
3 | _ _ _ P _ _ _ _ 
2 | _ P P _ P P P _ 
1 | R _ B Q K B N R 
-------------------
  | A B C D E F G H 

It is white's turn to play.
AI's move: e2e4
Move written: e2e4
[32;1m[Game] [0mPlayer's error code: 0
[32;1m[Game] [0mChecking move validity...
[32;1m[Board] [0mInitializing board...
[32;1m[Board] [0mLoading history file `championship/lizzie-iii-alabtros/history.csv`...
[32;1m[Board] [0mLoaded 10 move(s).
[32;1m[Board] [0mLoading move file `championship/lizzie-iii-alabtros/move.csv`...
[32;1m[Board] [0mWhite player is playing e2 to e4.
[32;1m[Board] [0m
[32;1m[Board] [0m    a b c d e f g h 
[32;1m[Board] [0m  -------------------
[32;1m[Board] [0m8 ||[30;1mr[0m| |[30;1mb[0m|[30;1mQ[0m|[30;1mK[0m|[30;1mb[0m|[30;1mk[0m|[30;1mr[0m|| 8
[32;1m[Board] [0m  -------------------
[32;1m[Board] [0m7 ||[30;1mp[0m|[30;1mp[0m| |[7;1m [0m|[30;1mp[0m|[30;1mp[0m|[30;1mp[0m|[30;1mp[0m|| 7
[32;1m[Board] [0m  -------------------
[32;1m[Board] [0m6 ||[7;1m [0m| |[30;1mp[0m| |[7;1m [0m| |[7;1m [0m| || 6
[32;1m[Board] [0m  -------------------
[32;1m[Board] [0m5 ||[30;1mk[0m|[0;1mk[0m| |[30;1mp[0m| |[7;1m [0m| |[7;1m [0m|| 5
[32;1m[Board] [0m  -------------------
[32;1m[Board] [0m4 ||[0;1mp[0m| |[7;1m [0m| |[0;1mp[0m| |[7;1m [0m|[0;1mp[0m|| 4
[32;1m[Board] [0m  -------------------
[32;1m[Board] [0m3 || |[7;1m [0m| |[0;1mp[0m| |[7;1m [0m| |[7;1m [0m|| 3
[32;1m[Board] [0m  -------------------
[32;1m[Board] [0m2 ||[7;1m [0m|[0;1mp[0m|[0;1mp[0m| |[7;1m [0m|[0;1mp[0m|[0;1mp[0m| || 2
[32;1m[Board] [0m  -------------------
[32;1m[Board] [0m1 ||[0;1mr[0m|[7;1m [0m|[0;1mb[0m|[0;1mQ[0m|[0;1mK[0m|[0;1mb[0m|[0;1mk[0m|[0;1mr[0m|| 1
[32;1m[Board] [0m  -------------------
[32;1m[Board] [0m    a b c d e f g h
[32;1m[Board] [0m
[32;1m[Referee] [0mThis is the turn of the Black player...
8| r . b q k b n r 
7| p p . . p p p p 
6| . . p . . . . . 
5| n N . p . . . . 
4| P . . . P . . P 
3| . . . P . . . . 
2| . P P . . P P . 
1| R . B Q K B N R 
-| A|B|C|D|E|F|G|H
d5e4
d5d4
c6b5
c6c5
a7a6
b7b6
e7e6
e7e5
f7f6
f7f5
g7g6
g7g5
h7h6
h7h5
a5b3
a5c4
g8f6
g8h6
c8h3
c8g4
c8f5
c8e6
c8d7
a8b8
d8d6
d8d7
d8b6
d8c7
e8d7
[32;1m[Game] [0mPlayer's error code: 0
[32;1m[Game] [0mChecking move validity...
[32;1m[Board] [0mInitializing board...
[32;1m[Board] [0mLoading history file `championship/lizzie-iii-alabtros/history.csv`...
[32;1m[Board] [0mLoaded 11 move(s).
[32;1m[Board] [0mLoading move file `championship/lizzie-iii-alabtros/move.csv`...
[32;1m[Board] [0mBlack player is playing c6 to c5.
[32;1m[Board] [0m
[32;1m[Board] [0m    a b c d e f g h 
[32;1m[Board] [0m  -------------------
[32;1m[Board] [0m8 ||[30;1mr[0m| |[30;1mb[0m|[30;1mQ[0m|[30;1mK[0m|[30;1mb[0m|[30;1mk[0m|[30;1mr[0m|| 8
[32;1m[Board] [0m  -------------------
[32;1m[Board] [0m7 ||[30;1mp[0m|[30;1mp[0m| |[7;1m [0m|[30;1mp[0m|[30;1mp[0m|[30;1mp[0m|[30;1mp[0m|| 7
[32;1m[Board] [0m  -------------------
[32;1m[Board] [0m6 ||[7;1m [0m| |[7;1m [0m| |[7;1m [0m| |[7;1m [0m| || 6
[32;1m[Board] [0m  -------------------
[32;1m[Board] [0m5 ||[30;1mk[0m|[0;1mk[0m|[30;1mp[0m|[30;1mp[0m| |[7;1m [0m| |[7;1m [0m|| 5
[32;1m[Board] [0m  -------------------
[32;1m[Board] [0m4 ||[0;1mp[0m| |[7;1m [0m| |[0;1mp[0m| |[7;1m [0m|[0;1mp[0m|| 4
[32;1m[Board] [0m  -------------------
[32;1m[Board] [0m3 || |[7;1m [0m| |[0;1mp[0m| |[7;1m [0m| |[7;1m [0m|| 3
[32;1m[Board] [0m  -------------------
[32;1m[Board] [0m2 ||[7;1m [0m|[0;1mp[0m|[0;1mp[0m| |[7;1m [0m|[0;1mp[0m|[0;1mp[0m| || 2
[32;1m[Board] [0m  -------------------
[32;1m[Board] [0m1 ||[0;1mr[0m|[7;1m [0m|[0;1mb[0m|[0;1mQ[0m|[0;1mK[0m|[0;1mb[0m|[0;1mk[0m|[0;1mr[0m|| 1
[32;1m[Board] [0m  -------------------
[32;1m[Board] [0m    a b c d e f g h
[32;1m[Board] [0m
[32;1m[Referee] [0mThis is the turn of the White player...
Input file: championship/lizzie-iii-alabtros/history.csv
Output file: championship/lizzie-iii-alabtros/move.csv
Turn of: white
Succesful move
h2h4
8 | R N B Q K B N R 
7 | P P P P P P P P 
6 | _ _ _ _ _ _ _ _ 
5 | _ _ _ _ _ _ _ _ 
4 | _ _ _ _ _ _ _ P 
3 | _ _ _ _ _ _ _ _ 
2 | P P P P P P P _ 
1 | R N B Q K B N R 
-------------------
  | A B C D E F G H 

Turn of: black
Succesful move
b8c6
8 | R _ B Q K B N R 
7 | P P P P P P P P 
6 | _ _ N _ _ _ _ _ 
5 | _ _ _ _ _ _ _ _ 
4 | _ _ _ _ _ _ _ P 
3 | _ _ _ _ _ _ _ _ 
2 | P P P P P P P _ 
1 | R N B Q K B N R 
-------------------
  | A B C D E F G H 

Turn of: white
Succesful move
b1c3
8 | R _ B Q K B N R 
7 | P P P P P P P P 
6 | _ _ N _ _ _ _ _ 
5 | _ _ _ _ _ _ _ _ 
4 | _ _ _ _ _ _ _ P 
3 | _ _ N _ _ _ _ _ 
2 | P P P P P P P _ 
1 | R _ B Q K B N R 
-------------------
  | A B C D E F G H 

Turn of: black
Succesful move
c6a5
8 | R _ B Q K B N R 
7 | P P P P P P P P 
6 | _ _ _ _ _ _ _ _ 
5 | N _ _ _ _ _ _ _ 
4 | _ _ _ _ _ _ _ P 
3 | _ _ N _ _ _ _ _ 
2 | P P P P P P P _ 
1 | R _ B Q K B N R 
-------------------
  | A B C D E F G H 

Turn of: white
Succesful move
c3b5
8 | R _ B Q K B N R 
7 | P P P P P P P P 
6 | _ _ _ _ _ _ _ _ 
5 | N N _ _ _ _ _ _ 
4 | _ _ _ _ _ _ _ P 
3 | _ _ _ _ _ _ _ _ 
2 | P P P P P P P _ 
1 | R _ B Q K B N R 
-------------------
  | A B C D E F G H 

Turn of: black
Succesful move
d7d6
8 | R _ B Q K B N R 
7 | P P P _ P P P P 
6 | _ _ _ P _ _ _ _ 
5 | N N _ _ _ _ _ _ 
4 | _ _ _ _ _ _ _ P 
3 | _ _ _ _ _ _ _ _ 
2 | P P P P P P P _ 
1 | R _ B Q K B N R 
-------------------
  | A B C D E F G H 

Turn of: white
Succesful move
d2d3
8 | R _ B Q K B N R 
7 | P P P _ P P P P 
6 | _ _ _ P _ _ _ _ 
5 | N N _ _ _ _ _ _ 
4 | _ _ _ _ _ _ _ P 
3 | _ _ _ P _ _ _ _ 
2 | P P P _ P P P _ 
1 | R _ B Q K B N R 
-------------------
  | A B C D E F G H 

Turn of: black
Succesful move
d6d5
8 | R _ B Q K B N R 
7 | P P P _ P P P P 
6 | _ _ _ _ _ _ _ _ 
5 | N N _ P _ _ _ _ 
4 | _ _ _ _ _ _ _ P 
3 | _ _ _ P _ _ _ _ 
2 | P P P _ P P P _ 
1 | R _ B Q K B N R 
-------------------
  | A B C D E F G H 

Turn of: white
Succesful move
a2a4
8 | R _ B Q K B N R 
7 | P P P _ P P P P 
6 | _ _ _ _ _ _ _ _ 
5 | N N _ P _ _ _ _ 
4 | P _ _ _ _ _ _ P 
3 | _ _ _ P _ _ _ _ 
2 | _ P P _ P P P _ 
1 | R _ B Q K B N R 
-------------------
  | A B C D E F G H 

Turn of: black
Succesful move
c7c6
8 | R _ B Q K B N R 
7 | P P _ _ P P P P 
6 | _ _ P _ _ _ _ _ 
5 | N N _ P _ _ _ _ 
4 | P _ _ _ _ _ _ P 
3 | _ _ _ P _ _ _ _ 
2 | _ P P _ P P P _ 
1 | R _ B Q K B N R 
-------------------
  | A B C D E F G H 

Turn of: white
Succesful move
e2e4
8 | R _ B Q K B N R 
7 | P P _ _ P P P P 
6 | _ _ P _ _ _ _ _ 
5 | N N _ P _ _ _ _ 
4 | P _ _ _ P _ _ P 
3 | _ _ _ P _ _ _ _ 
2 | _ P P _ _ P P _ 
1 | R _ B Q K B N R 
-------------------
  | A B C D E F G H 

Turn of: black
Succesful move
c6c5
8 | R _ B Q K B N R 
7 | P P _ _ P P P P 
6 | _ _ _ _ _ _ _ _ 
5 | N N P P _ _ _ _ 
4 | P _ _ _ P _ _ P 
3 | _ _ _ P _ _ _ _ 
2 | _ P P _ _ P P _ 
1 | R _ B Q K B N R 
-------------------
  | A B C D E F G H 

We are playing as White
Move history:
h2h4
b8c6
b1c3
c6a5
c3b5
d7d6
d2d3
d6d5
a2a4
c7c6
e2e4
c6c5
8 | R _ B Q K B N R 
7 | P P _ _ P P P P 
6 | _ _ _ _ _ _ _ _ 
5 | N N P P _ _ _ _ 
4 | P _ _ _ P _ _ P 
3 | _ _ _ P _ _ _ _ 
2 | _ P P _ _ P P _ 
1 | R _ B Q K B N R 
-------------------
  | A B C D E F G H 

It is white's turn to play.
AI's move: e4e5
Move written: e4e5
[32;1m[Game] [0mPlayer's error code: 0
[32;1m[Game] [0mChecking move validity...
[32;1m[Board] [0mInitializing board...
[32;1m[Board] [0mLoading history file `championship/lizzie-iii-alabtros/history.csv`...
[32;1m[Board] [0mLoaded 12 move(s).
[32;1m[Board] [0mLoading move file `championship/lizzie-iii-alabtros/move.csv`...
[32;1m[Board] [0mWhite player is playing e4 to e5.
[32;1m[Board] [0m
[32;1m[Board] [0m    a b c d e f g h 
[32;1m[Board] [0m  -------------------
[32;1m[Board] [0m8 ||[30;1mr[0m| |[30;1mb[0m|[30;1mQ[0m|[30;1mK[0m|[30;1mb[0m|[30;1mk[0m|[30;1mr[0m|| 8
[32;1m[Board] [0m  -------------------
[32;1m[Board] [0m7 ||[30;1mp[0m|[30;1mp[0m| |[7;1m [0m|[30;1mp[0m|[30;1mp[0m|[30;1mp[0m|[30;1mp[0m|| 7
[32;1m[Board] [0m  -------------------
[32;1m[Board] [0m6 ||[7;1m [0m| |[7;1m [0m| |[7;1m [0m| |[7;1m [0m| || 6
[32;1m[Board] [0m  -------------------
[32;1m[Board] [0m5 ||[30;1mk[0m|[0;1mk[0m|[30;1mp[0m|[30;1mp[0m|[0;1mp[0m|[7;1m [0m| |[7;1m [0m|| 5
[32;1m[Board] [0m  -------------------
[32;1m[Board] [0m4 ||[0;1mp[0m| |[7;1m [0m| |[7;1m [0m| |[7;1m [0m|[0;1mp[0m|| 4
[32;1m[Board] [0m  -------------------
[32;1m[Board] [0m3 || |[7;1m [0m| |[0;1mp[0m| |[7;1m [0m| |[7;1m [0m|| 3
[32;1m[Board] [0m  -------------------
[32;1m[Board] [0m2 ||[7;1m [0m|[0;1mp[0m|[0;1mp[0m| |[7;1m [0m|[0;1mp[0m|[0;1mp[0m| || 2
[32;1m[Board] [0m  -------------------
[32;1m[Board] [0m1 ||[0;1mr[0m|[7;1m [0m|[0;1mb[0m|[0;1mQ[0m|[0;1mK[0m|[0;1mb[0m|[0;1mk[0m|[0;1mr[0m|| 1
[32;1m[Board] [0m  -------------------
[32;1m[Board] [0m    a b c d e f g h
[32;1m[Board] [0m
[32;1m[Referee] [0mThis is the turn of the Black player...
8| r . b q k b n r 
7| p p . . p p p p 
6| . . . . . . . . 
5| n N p p P . . . 
4| P . . . . . . P 
3| . . . P . . . . 
2| . P P . . P P . 
1| R . B Q K B N R 
-| A|B|C|D|E|F|G|H
c5c4
d5d4
a7a6
b7b6
e7e6
f7f6
f7f5
g7g6
g7g5
h7h6
h7h5
a5b3
a5c4
a5c6
g8f6
g8h6
c8h3
c8g4
c8f5
c8e6
c8d7
a8b8
d8d6
d8d7
d8b6
d8c7
e8d7
[32;1m[Game] [0mPlayer's error code: 0
[32;1m[Game] [0mChecking move validity...
[32;1m[Board] [0mInitializing board...
[32;1m[Board] [0mLoading history file `championship/lizzie-iii-alabtros/history.csv`...
[32;1m[Board] [0mLoaded 13 move(s).
[32;1m[Board] [0mLoading move file `championship/lizzie-iii-alabtros/move.csv`...
[32;1m[Board] [0mBlack player is playing e8 to d7.
[32;1m[Board] [0m
[32;1m[Board] [0m    a b c d e f g h 
[32;1m[Board] [0m  -------------------
[32;1m[Board] [0m8 ||[30;1mr[0m| |[30;1mb[0m|[30;1mQ[0m|[7;1m [0m|[30;1mb[0m|[30;1mk[0m|[30;1mr[0m|| 8
[32;1m[Board] [0m  -------------------
[32;1m[Board] [0m7 ||[30;1mp[0m|[30;1mp[0m| |[30;1mK[0m|[30;1mp[0m|[30;1mp[0m|[30;1mp[0m|[30;1mp[0m|| 7
[32;1m[Board] [0m  -------------------
[32;1m[Board] [0m6 ||[7;1m [0m| |[7;1m [0m| |[7;1m [0m| |[7;1m [0m| || 6
[32;1m[Board] [0m  -------------------
[32;1m[Board] [0m5 ||[30;1mk[0m|[0;1mk[0m|[30;1mp[0m|[30;1mp[0m|[0;1mp[0m|[7;1m [0m| |[7;1m [0m|| 5
[32;1m[Board] [0m  -------------------
[32;1m[Board] [0m4 ||[0;1mp[0m| |[7;1m [0m| |[7;1m [0m| |[7;1m [0m|[0;1mp[0m|| 4
[32;1m[Board] [0m  -------------------
[32;1m[Board] [0m3 || |[7;1m [0m| |[0;1mp[0m| |[7;1m [0m| |[7;1m [0m|| 3
[32;1m[Board] [0m  -------------------
[32;1m[Board] [0m2 ||[7;1m [0m|[0;1mp[0m|[0;1mp[0m| |[7;1m [0m|[0;1mp[0m|[0;1mp[0m| || 2
[32;1m[Board] [0m  -------------------
[32;1m[Board] [0m1 ||[0;1mr[0m|[7;1m [0m|[0;1mb[0m|[0;1mQ[0m|[0;1mK[0m|[0;1mb[0m|[0;1mk[0m|[0;1mr[0m|| 1
[32;1m[Board] [0m  -------------------
[32;1m[Board] [0m    a b c d e f g h
[32;1m[Board] [0m
[32;1m[Referee] [0mThis is the turn of the White player...
Input file: championship/lizzie-iii-alabtros/history.csv
Output file: championship/lizzie-iii-alabtros/move.csv
Turn of: white
Succesful move
h2h4
8 | R N B Q K B N R 
7 | P P P P P P P P 
6 | _ _ _ _ _ _ _ _ 
5 | _ _ _ _ _ _ _ _ 
4 | _ _ _ _ _ _ _ P 
3 | _ _ _ _ _ _ _ _ 
2 | P P P P P P P _ 
1 | R N B Q K B N R 
-------------------
  | A B C D E F G H 

Turn of: black
Succesful move
b8c6
8 | R _ B Q K B N R 
7 | P P P P P P P P 
6 | _ _ N _ _ _ _ _ 
5 | _ _ _ _ _ _ _ _ 
4 | _ _ _ _ _ _ _ P 
3 | _ _ _ _ _ _ _ _ 
2 | P P P P P P P _ 
1 | R N B Q K B N R 
-------------------
  | A B C D E F G H 

Turn of: white
Succesful move
b1c3
8 | R _ B Q K B N R 
7 | P P P P P P P P 
6 | _ _ N _ _ _ _ _ 
5 | _ _ _ _ _ _ _ _ 
4 | _ _ _ _ _ _ _ P 
3 | _ _ N _ _ _ _ _ 
2 | P P P P P P P _ 
1 | R _ B Q K B N R 
-------------------
  | A B C D E F G H 

Turn of: black
Succesful move
c6a5
8 | R _ B Q K B N R 
7 | P P P P P P P P 
6 | _ _ _ _ _ _ _ _ 
5 | N _ _ _ _ _ _ _ 
4 | _ _ _ _ _ _ _ P 
3 | _ _ N _ _ _ _ _ 
2 | P P P P P P P _ 
1 | R _ B Q K B N R 
-------------------
  | A B C D E F G H 

Turn of: white
Succesful move
c3b5
8 | R _ B Q K B N R 
7 | P P P P P P P P 
6 | _ _ _ _ _ _ _ _ 
5 | N N _ _ _ _ _ _ 
4 | _ _ _ _ _ _ _ P 
3 | _ _ _ _ _ _ _ _ 
2 | P P P P P P P _ 
1 | R _ B Q K B N R 
-------------------
  | A B C D E F G H 

Turn of: black
Succesful move
d7d6
8 | R _ B Q K B N R 
7 | P P P _ P P P P 
6 | _ _ _ P _ _ _ _ 
5 | N N _ _ _ _ _ _ 
4 | _ _ _ _ _ _ _ P 
3 | _ _ _ _ _ _ _ _ 
2 | P P P P P P P _ 
1 | R _ B Q K B N R 
-------------------
  | A B C D E F G H 

Turn of: white
Succesful move
d2d3
8 | R _ B Q K B N R 
7 | P P P _ P P P P 
6 | _ _ _ P _ _ _ _ 
5 | N N _ _ _ _ _ _ 
4 | _ _ _ _ _ _ _ P 
3 | _ _ _ P _ _ _ _ 
2 | P P P _ P P P _ 
1 | R _ B Q K B N R 
-------------------
  | A B C D E F G H 

Turn of: black
Succesful move
d6d5
8 | R _ B Q K B N R 
7 | P P P _ P P P P 
6 | _ _ _ _ _ _ _ _ 
5 | N N _ P _ _ _ _ 
4 | _ _ _ _ _ _ _ P 
3 | _ _ _ P _ _ _ _ 
2 | P P P _ P P P _ 
1 | R _ B Q K B N R 
-------------------
  | A B C D E F G H 

Turn of: white
Succesful move
a2a4
8 | R _ B Q K B N R 
7 | P P P _ P P P P 
6 | _ _ _ _ _ _ _ _ 
5 | N N _ P _ _ _ _ 
4 | P _ _ _ _ _ _ P 
3 | _ _ _ P _ _ _ _ 
2 | _ P P _ P P P _ 
1 | R _ B Q K B N R 
-------------------
  | A B C D E F G H 

Turn of: black
Succesful move
c7c6
8 | R _ B Q K B N R 
7 | P P _ _ P P P P 
6 | _ _ P _ _ _ _ _ 
5 | N N _ P _ _ _ _ 
4 | P _ _ _ _ _ _ P 
3 | _ _ _ P _ _ _ _ 
2 | _ P P _ P P P _ 
1 | R _ B Q K B N R 
-------------------
  | A B C D E F G H 

Turn of: white
Succesful move
e2e4
8 | R _ B Q K B N R 
7 | P P _ _ P P P P 
6 | _ _ P _ _ _ _ _ 
5 | N N _ P _ _ _ _ 
4 | P _ _ _ P _ _ P 
3 | _ _ _ P _ _ _ _ 
2 | _ P P _ _ P P _ 
1 | R _ B Q K B N R 
-------------------
  | A B C D E F G H 

Turn of: black
Succesful move
c6c5
8 | R _ B Q K B N R 
7 | P P _ _ P P P P 
6 | _ _ _ _ _ _ _ _ 
5 | N N P P _ _ _ _ 
4 | P _ _ _ P _ _ P 
3 | _ _ _ P _ _ _ _ 
2 | _ P P _ _ P P _ 
1 | R _ B Q K B N R 
-------------------
  | A B C D E F G H 

Turn of: white
Succesful move
e4e5
8 | R _ B Q K B N R 
7 | P P _ _ P P P P 
6 | _ _ _ _ _ _ _ _ 
5 | N N P P P _ _ _ 
4 | P _ _ _ _ _ _ P 
3 | _ _ _ P _ _ _ _ 
2 | _ P P _ _ P P _ 
1 | R _ B Q K B N R 
-------------------
  | A B C D E F G H 

Turn of: black
Succesful move
e8d7
8 | R _ B Q _ B N R 
7 | P P _ K P P P P 
6 | _ _ _ _ _ _ _ _ 
5 | N N P P P _ _ _ 
4 | P _ _ _ _ _ _ P 
3 | _ _ _ P _ _ _ _ 
2 | _ P P _ _ P P _ 
1 | R _ B Q K B N R 
-------------------
  | A B C D E F G H 

We are playing as White
Move history:
h2h4
b8c6
b1c3
c6a5
c3b5
d7d6
d2d3
d6d5
a2a4
c7c6
e2e4
c6c5
e4e5
e8d7
8 | R _ B Q _ B N R 
7 | P P _ K P P P P 
6 | _ _ _ _ _ _ _ _ 
5 | N N P P P _ _ _ 
4 | P _ _ _ _ _ _ P 
3 | _ _ _ P _ _ _ _ 
2 | _ P P _ _ P P _ 
1 | R _ B Q K B N R 
-------------------
  | A B C D E F G H 

It is white's turn to play.
AI's move: b5d4
Move written: b5d4
[32;1m[Game] [0mPlayer's error code: 0
[32;1m[Game] [0mChecking move validity...
[32;1m[Board] [0mInitializing board...
[32;1m[Board] [0mLoading history file `championship/lizzie-iii-alabtros/history.csv`...
[32;1m[Board] [0mLoaded 14 move(s).
[32;1m[Board] [0mLoading move file `championship/lizzie-iii-alabtros/move.csv`...
[32;1m[Board] [0mWhite player is playing b5 to d4.
[32;1m[Board] [0m
[32;1m[Board] [0m    a b c d e f g h 
[32;1m[Board] [0m  -------------------
[32;1m[Board] [0m8 ||[30;1mr[0m| |[30;1mb[0m|[30;1mQ[0m|[7;1m [0m|[30;1mb[0m|[30;1mk[0m|[30;1mr[0m|| 8
[32;1m[Board] [0m  -------------------
[32;1m[Board] [0m7 ||[30;1mp[0m|[30;1mp[0m| |[30;1mK[0m|[30;1mp[0m|[30;1mp[0m|[30;1mp[0m|[30;1mp[0m|| 7
[32;1m[Board] [0m  -------------------
[32;1m[Board] [0m6 ||[7;1m [0m| |[7;1m [0m| |[7;1m [0m| |[7;1m [0m| || 6
[32;1m[Board] [0m  -------------------
[32;1m[Board] [0m5 ||[30;1mk[0m|[7;1m [0m|[30;1mp[0m|[30;1mp[0m|[0;1mp[0m|[7;1m [0m| |[7;1m [0m|| 5
[32;1m[Board] [0m  -------------------
[32;1m[Board] [0m4 ||[0;1mp[0m| |[7;1m [0m|[0;1mk[0m|[7;1m [0m| |[7;1m [0m|[0;1mp[0m|| 4
[32;1m[Board] [0m  -------------------
[32;1m[Board] [0m3 || |[7;1m [0m| |[0;1mp[0m| |[7;1m [0m| |[7;1m [0m|| 3
[32;1m[Board] [0m  -------------------
[32;1m[Board] [0m2 ||[7;1m [0m|[0;1mp[0m|[0;1mp[0m| |[7;1m [0m|[0;1mp[0m|[0;1mp[0m| || 2
[32;1m[Board] [0m  -------------------
[32;1m[Board] [0m1 ||[0;1mr[0m|[7;1m [0m|[0;1mb[0m|[0;1mQ[0m|[0;1mK[0m|[0;1mb[0m|[0;1mk[0m|[0;1mr[0m|| 1
[32;1m[Board] [0m  -------------------
[32;1m[Board] [0m    a b c d e f g h
[32;1m[Board] [0m
[32;1m[Referee] [0mThis is the turn of the Black player...
8| r . b q . b n r 
7| p p . k p p p p 
6| . . . . . . . . 
5| n . p p P . . . 
4| P . . N . . . P 
3| . . . P . . . . 
2| . P P . . P P . 
1| R . B Q K B N R 
-| A|B|C|D|E|F|G|H
c5d4
c5c4
a7a6
b7b6
b7b5
e7e6
f7f6
f7f5
g7g6
g7g5
h7h6
h7h5
a5b3
a5c4
a5c6
g8f6
g8h6
a8b8
d8e8
d8b6
d8c7
d7c7
d7e8
[32;1m[Game] [0mPlayer's error code: 0
[32;1m[Game] [0mChecking move validity...
[32;1m[Board] [0mInitializing board...
[32;1m[Board] [0mLoading history file `championship/lizzie-iii-alabtros/history.csv`...
[32;1m[Board] [0mLoaded 15 move(s).
[32;1m[Board] [0mLoading move file `championship/lizzie-iii-alabtros/move.csv`...
[32;1m[Board] [0mBlack player is playing a5 to c4.
[32;1m[Board] [0m
[32;1m[Board] [0m    a b c d e f g h 
[32;1m[Board] [0m  -------------------
[32;1m[Board] [0m8 ||[30;1mr[0m| |[30;1mb[0m|[30;1mQ[0m|[7;1m [0m|[30;1mb[0m|[30;1mk[0m|[30;1mr[0m|| 8
[32;1m[Board] [0m  -------------------
[32;1m[Board] [0m7 ||[30;1mp[0m|[30;1mp[0m| |[30;1mK[0m|[30;1mp[0m|[30;1mp[0m|[30;1mp[0m|[30;1mp[0m|| 7
[32;1m[Board] [0m  -------------------
[32;1m[Board] [0m6 ||[7;1m [0m| |[7;1m [0m| |[7;1m [0m| |[7;1m [0m| || 6
[32;1m[Board] [0m  -------------------
[32;1m[Board] [0m5 || |[7;1m [0m|[30;1mp[0m|[30;1mp[0m|[0;1mp[0m|[7;1m [0m| |[7;1m [0m|| 5
[32;1m[Board] [0m  -------------------
[32;1m[Board] [0m4 ||[0;1mp[0m| |[30;1mk[0m|[0;1mk[0m|[7;1m [0m| |[7;1m [0m|[0;1mp[0m|| 4
[32;1m[Board] [0m  -------------------
[32;1m[Board] [0m3 || |[7;1m [0m| |[0;1mp[0m| |[7;1m [0m| |[7;1m [0m|| 3
[32;1m[Board] [0m  -------------------
[32;1m[Board] [0m2 ||[7;1m [0m|[0;1mp[0m|[0;1mp[0m| |[7;1m [0m|[0;1mp[0m|[0;1mp[0m| || 2
[32;1m[Board] [0m  -------------------
[32;1m[Board] [0m1 ||[0;1mr[0m|[7;1m [0m|[0;1mb[0m|[0;1mQ[0m|[0;1mK[0m|[0;1mb[0m|[0;1mk[0m|[0;1mr[0m|| 1
[32;1m[Board] [0m  -------------------
[32;1m[Board] [0m    a b c d e f g h
[32;1m[Board] [0m
[32;1m[Referee] [0mThis is the turn of the White player...
Input file: championship/lizzie-iii-alabtros/history.csv
Output file: championship/lizzie-iii-alabtros/move.csv
Turn of: white
Succesful move
h2h4
8 | R N B Q K B N R 
7 | P P P P P P P P 
6 | _ _ _ _ _ _ _ _ 
5 | _ _ _ _ _ _ _ _ 
4 | _ _ _ _ _ _ _ P 
3 | _ _ _ _ _ _ _ _ 
2 | P P P P P P P _ 
1 | R N B Q K B N R 
-------------------
  | A B C D E F G H 

Turn of: black
Succesful move
b8c6
8 | R _ B Q K B N R 
7 | P P P P P P P P 
6 | _ _ N _ _ _ _ _ 
5 | _ _ _ _ _ _ _ _ 
4 | _ _ _ _ _ _ _ P 
3 | _ _ _ _ _ _ _ _ 
2 | P P P P P P P _ 
1 | R N B Q K B N R 
-------------------
  | A B C D E F G H 

Turn of: white
Succesful move
b1c3
8 | R _ B Q K B N R 
7 | P P P P P P P P 
6 | _ _ N _ _ _ _ _ 
5 | _ _ _ _ _ _ _ _ 
4 | _ _ _ _ _ _ _ P 
3 | _ _ N _ _ _ _ _ 
2 | P P P P P P P _ 
1 | R _ B Q K B N R 
-------------------
  | A B C D E F G H 

Turn of: black
Succesful move
c6a5
8 | R _ B Q K B N R 
7 | P P P P P P P P 
6 | _ _ _ _ _ _ _ _ 
5 | N _ _ _ _ _ _ _ 
4 | _ _ _ _ _ _ _ P 
3 | _ _ N _ _ _ _ _ 
2 | P P P P P P P _ 
1 | R _ B Q K B N R 
-------------------
  | A B C D E F G H 

Turn of: white
Succesful move
c3b5
8 | R _ B Q K B N R 
7 | P P P P P P P P 
6 | _ _ _ _ _ _ _ _ 
5 | N N _ _ _ _ _ _ 
4 | _ _ _ _ _ _ _ P 
3 | _ _ _ _ _ _ _ _ 
2 | P P P P P P P _ 
1 | R _ B Q K B N R 
-------------------
  | A B C D E F G H 

Turn of: black
Succesful move
d7d6
8 | R _ B Q K B N R 
7 | P P P _ P P P P 
6 | _ _ _ P _ _ _ _ 
5 | N N _ _ _ _ _ _ 
4 | _ _ _ _ _ _ _ P 
3 | _ _ _ _ _ _ _ _ 
2 | P P P P P P P _ 
1 | R _ B Q K B N R 
-------------------
  | A B C D E F G H 

Turn of: white
Succesful move
d2d3
8 | R _ B Q K B N R 
7 | P P P _ P P P P 
6 | _ _ _ P _ _ _ _ 
5 | N N _ _ _ _ _ _ 
4 | _ _ _ _ _ _ _ P 
3 | _ _ _ P _ _ _ _ 
2 | P P P _ P P P _ 
1 | R _ B Q K B N R 
-------------------
  | A B C D E F G H 

Turn of: black
Succesful move
d6d5
8 | R _ B Q K B N R 
7 | P P P _ P P P P 
6 | _ _ _ _ _ _ _ _ 
5 | N N _ P _ _ _ _ 
4 | _ _ _ _ _ _ _ P 
3 | _ _ _ P _ _ _ _ 
2 | P P P _ P P P _ 
1 | R _ B Q K B N R 
-------------------
  | A B C D E F G H 

Turn of: white
Succesful move
a2a4
8 | R _ B Q K B N R 
7 | P P P _ P P P P 
6 | _ _ _ _ _ _ _ _ 
5 | N N _ P _ _ _ _ 
4 | P _ _ _ _ _ _ P 
3 | _ _ _ P _ _ _ _ 
2 | _ P P _ P P P _ 
1 | R _ B Q K B N R 
-------------------
  | A B C D E F G H 

Turn of: black
Succesful move
c7c6
8 | R _ B Q K B N R 
7 | P P _ _ P P P P 
6 | _ _ P _ _ _ _ _ 
5 | N N _ P _ _ _ _ 
4 | P _ _ _ _ _ _ P 
3 | _ _ _ P _ _ _ _ 
2 | _ P P _ P P P _ 
1 | R _ B Q K B N R 
-------------------
  | A B C D E F G H 

Turn of: white
Succesful move
e2e4
8 | R _ B Q K B N R 
7 | P P _ _ P P P P 
6 | _ _ P _ _ _ _ _ 
5 | N N _ P _ _ _ _ 
4 | P _ _ _ P _ _ P 
3 | _ _ _ P _ _ _ _ 
2 | _ P P _ _ P P _ 
1 | R _ B Q K B N R 
-------------------
  | A B C D E F G H 

Turn of: black
Succesful move
c6c5
8 | R _ B Q K B N R 
7 | P P _ _ P P P P 
6 | _ _ _ _ _ _ _ _ 
5 | N N P P _ _ _ _ 
4 | P _ _ _ P _ _ P 
3 | _ _ _ P _ _ _ _ 
2 | _ P P _ _ P P _ 
1 | R _ B Q K B N R 
-------------------
  | A B C D E F G H 

Turn of: white
Succesful move
e4e5
8 | R _ B Q K B N R 
7 | P P _ _ P P P P 
6 | _ _ _ _ _ _ _ _ 
5 | N N P P P _ _ _ 
4 | P _ _ _ _ _ _ P 
3 | _ _ _ P _ _ _ _ 
2 | _ P P _ _ P P _ 
1 | R _ B Q K B N R 
-------------------
  | A B C D E F G H 

Turn of: black
Succesful move
e8d7
8 | R _ B Q _ B N R 
7 | P P _ K P P P P 
6 | _ _ _ _ _ _ _ _ 
5 | N N P P P _ _ _ 
4 | P _ _ _ _ _ _ P 
3 | _ _ _ P _ _ _ _ 
2 | _ P P _ _ P P _ 
1 | R _ B Q K B N R 
-------------------
  | A B C D E F G H 

Turn of: white
Succesful move
b5d4
8 | R _ B Q _ B N R 
7 | P P _ K P P P P 
6 | _ _ _ _ _ _ _ _ 
5 | N _ P P P _ _ _ 
4 | P _ _ N _ _ _ P 
3 | _ _ _ P _ _ _ _ 
2 | _ P P _ _ P P _ 
1 | R _ B Q K B N R 
-------------------
  | A B C D E F G H 

Turn of: black
Succesful move
a5c4
8 | R _ B Q _ B N R 
7 | P P _ K P P P P 
6 | _ _ _ _ _ _ _ _ 
5 | _ _ P P P _ _ _ 
4 | P _ N N _ _ _ P 
3 | _ _ _ P _ _ _ _ 
2 | _ P P _ _ P P _ 
1 | R _ B Q K B N R 
-------------------
  | A B C D E F G H 

We are playing as White
Move history:
h2h4
b8c6
b1c3
c6a5
c3b5
d7d6
d2d3
d6d5
a2a4
c7c6
e2e4
c6c5
e4e5
e8d7
b5d4
a5c4
8 | R _ B Q _ B N R 
7 | P P _ K P P P P 
6 | _ _ _ _ _ _ _ _ 
5 | _ _ P P P _ _ _ 
4 | P _ N N _ _ _ P 
3 | _ _ _ P _ _ _ _ 
2 | _ P P _ _ P P _ 
1 | R _ B Q K B N R 
-------------------
  | A B C D E F G H 

It is white's turn to play.
AI's move: d4f3
Move written: d4f3
[32;1m[Game] [0mPlayer's error code: 0
[32;1m[Game] [0mChecking move validity...
[32;1m[Board] [0mInitializing board...
[32;1m[Board] [0mLoading history file `championship/lizzie-iii-alabtros/history.csv`...
[32;1m[Board] [0mLoaded 16 move(s).
[32;1m[Board] [0mLoading move file `championship/lizzie-iii-alabtros/move.csv`...
[32;1m[Board] [0mWhite player is playing d4 to f3.
[32;1m[Board] [0m
[32;1m[Board] [0m    a b c d e f g h 
[32;1m[Board] [0m  -------------------
[32;1m[Board] [0m8 ||[30;1mr[0m| |[30;1mb[0m|[30;1mQ[0m|[7;1m [0m|[30;1mb[0m|[30;1mk[0m|[30;1mr[0m|| 8
[32;1m[Board] [0m  -------------------
[32;1m[Board] [0m7 ||[30;1mp[0m|[30;1mp[0m| |[30;1mK[0m|[30;1mp[0m|[30;1mp[0m|[30;1mp[0m|[30;1mp[0m|| 7
[32;1m[Board] [0m  -------------------
[32;1m[Board] [0m6 ||[7;1m [0m| |[7;1m [0m| |[7;1m [0m| |[7;1m [0m| || 6
[32;1m[Board] [0m  -------------------
[32;1m[Board] [0m5 || |[7;1m [0m|[30;1mp[0m|[30;1mp[0m|[0;1mp[0m|[7;1m [0m| |[7;1m [0m|| 5
[32;1m[Board] [0m  -------------------
[32;1m[Board] [0m4 ||[0;1mp[0m| |[30;1mk[0m| |[7;1m [0m| |[7;1m [0m|[0;1mp[0m|| 4
[32;1m[Board] [0m  -------------------
[32;1m[Board] [0m3 || |[7;1m [0m| |[0;1mp[0m| |[0;1mk[0m| |[7;1m [0m|| 3
[32;1m[Board] [0m  -------------------
[32;1m[Board] [0m2 ||[7;1m [0m|[0;1mp[0m|[0;1mp[0m| |[7;1m [0m|[0;1mp[0m|[0;1mp[0m| || 2
[32;1m[Board] [0m  -------------------
[32;1m[Board] [0m1 ||[0;1mr[0m|[7;1m [0m|[0;1mb[0m|[0;1mQ[0m|[0;1mK[0m|[0;1mb[0m|[0;1mk[0m|[0;1mr[0m|| 1
[32;1m[Board] [0m  -------------------
[32;1m[Board] [0m    a b c d e f g h
[32;1m[Board] [0m
[32;1m[Referee] [0mThis is the turn of the Black player...
8| r . b q . b n r 
7| p p . k p p p p 
6| . . . . . . . . 
5| . . p p P . . . 
4| P . n . . . . P 
3| . . . P . N . . 
2| . P P . . P P . 
1| R . B Q K B N R 
-| A|B|C|D|E|F|G|H
d5d4
a7a6
a7a5
b7b6
b7b5
e7e6
f7f6
f7f5
g7g6
g7g5
h7h6
h7h5
c4b2
c4d2
c4a3
c4e3
c4a5
c4e5
c4b6
c4d6
g8f6
g8h6
a8b8
d8e8
d8a5
d8b6
d8c7
d7c6
d7e6
d7c7
d7e8
[32;1m[Game] [0mPlayer's error code: 0
[32;1m[Game] [0mChecking move validity...
[32;1m[Board] [0mInitializing board...
[32;1m[Board] [0mLoading history file `championship/lizzie-iii-alabtros/history.csv`...
[32;1m[Board] [0mLoaded 17 move(s).
[32;1m[Board] [0mLoading move file `championship/lizzie-iii-alabtros/move.csv`...
[32;1m[Board] [0mBlack player is playing b7 to b5.
[32;1m[Board] [0m
[32;1m[Board] [0m    a b c d e f g h 
[32;1m[Board] [0m  -------------------
[32;1m[Board] [0m8 ||[30;1mr[0m| |[30;1mb[0m|[30;1mQ[0m|[7;1m [0m|[30;1mb[0m|[30;1mk[0m|[30;1mr[0m|| 8
[32;1m[Board] [0m  -------------------
[32;1m[Board] [0m7 ||[30;1mp[0m|[7;1m [0m| |[30;1mK[0m|[30;1mp[0m|[30;1mp[0m|[30;1mp[0m|[30;1mp[0m|| 7
[32;1m[Board] [0m  -------------------
[32;1m[Board] [0m6 ||[7;1m [0m| |[7;1m [0m| |[7;1m [0m| |[7;1m [0m| || 6
[32;1m[Board] [0m  -------------------
[32;1m[Board] [0m5 || |[30;1mp[0m|[30;1mp[0m|[30;1mp[0m|[0;1mp[0m|[7;1m [0m| |[7;1m [0m|| 5
[32;1m[Board] [0m  -------------------
[32;1m[Board] [0m4 ||[0;1mp[0m| |[30;1mk[0m| |[7;1m [0m| |[7;1m [0m|[0;1mp[0m|| 4
[32;1m[Board] [0m  -------------------
[32;1m[Board] [0m3 || |[7;1m [0m| |[0;1mp[0m| |[0;1mk[0m| |[7;1m [0m|| 3
[32;1m[Board] [0m  -------------------
[32;1m[Board] [0m2 ||[7;1m [0m|[0;1mp[0m|[0;1mp[0m| |[7;1m [0m|[0;1mp[0m|[0;1mp[0m| || 2
[32;1m[Board] [0m  -------------------
[32;1m[Board] [0m1 ||[0;1mr[0m|[7;1m [0m|[0;1mb[0m|[0;1mQ[0m|[0;1mK[0m|[0;1mb[0m|[0;1mk[0m|[0;1mr[0m|| 1
[32;1m[Board] [0m  -------------------
[32;1m[Board] [0m    a b c d e f g h
[32;1m[Board] [0m
[32;1m[Referee] [0mThis is the turn of the White player...
Input file: championship/lizzie-iii-alabtros/history.csv
Output file: championship/lizzie-iii-alabtros/move.csv
Turn of: white
Succesful move
h2h4
8 | R N B Q K B N R 
7 | P P P P P P P P 
6 | _ _ _ _ _ _ _ _ 
5 | _ _ _ _ _ _ _ _ 
4 | _ _ _ _ _ _ _ P 
3 | _ _ _ _ _ _ _ _ 
2 | P P P P P P P _ 
1 | R N B Q K B N R 
-------------------
  | A B C D E F G H 

Turn of: black
Succesful move
b8c6
8 | R _ B Q K B N R 
7 | P P P P P P P P 
6 | _ _ N _ _ _ _ _ 
5 | _ _ _ _ _ _ _ _ 
4 | _ _ _ _ _ _ _ P 
3 | _ _ _ _ _ _ _ _ 
2 | P P P P P P P _ 
1 | R N B Q K B N R 
-------------------
  | A B C D E F G H 

Turn of: white
Succesful move
b1c3
8 | R _ B Q K B N R 
7 | P P P P P P P P 
6 | _ _ N _ _ _ _ _ 
5 | _ _ _ _ _ _ _ _ 
4 | _ _ _ _ _ _ _ P 
3 | _ _ N _ _ _ _ _ 
2 | P P P P P P P _ 
1 | R _ B Q K B N R 
-------------------
  | A B C D E F G H 

Turn of: black
Succesful move
c6a5
8 | R _ B Q K B N R 
7 | P P P P P P P P 
6 | _ _ _ _ _ _ _ _ 
5 | N _ _ _ _ _ _ _ 
4 | _ _ _ _ _ _ _ P 
3 | _ _ N _ _ _ _ _ 
2 | P P P P P P P _ 
1 | R _ B Q K B N R 
-------------------
  | A B C D E F G H 

Turn of: white
Succesful move
c3b5
8 | R _ B Q K B N R 
7 | P P P P P P P P 
6 | _ _ _ _ _ _ _ _ 
5 | N N _ _ _ _ _ _ 
4 | _ _ _ _ _ _ _ P 
3 | _ _ _ _ _ _ _ _ 
2 | P P P P P P P _ 
1 | R _ B Q K B N R 
-------------------
  | A B C D E F G H 

Turn of: black
Succesful move
d7d6
8 | R _ B Q K B N R 
7 | P P P _ P P P P 
6 | _ _ _ P _ _ _ _ 
5 | N N _ _ _ _ _ _ 
4 | _ _ _ _ _ _ _ P 
3 | _ _ _ _ _ _ _ _ 
2 | P P P P P P P _ 
1 | R _ B Q K B N R 
-------------------
  | A B C D E F G H 

Turn of: white
Succesful move
d2d3
8 | R _ B Q K B N R 
7 | P P P _ P P P P 
6 | _ _ _ P _ _ _ _ 
5 | N N _ _ _ _ _ _ 
4 | _ _ _ _ _ _ _ P 
3 | _ _ _ P _ _ _ _ 
2 | P P P _ P P P _ 
1 | R _ B Q K B N R 
-------------------
  | A B C D E F G H 

Turn of: black
Succesful move
d6d5
8 | R _ B Q K B N R 
7 | P P P _ P P P P 
6 | _ _ _ _ _ _ _ _ 
5 | N N _ P _ _ _ _ 
4 | _ _ _ _ _ _ _ P 
3 | _ _ _ P _ _ _ _ 
2 | P P P _ P P P _ 
1 | R _ B Q K B N R 
-------------------
  | A B C D E F G H 

Turn of: white
Succesful move
a2a4
8 | R _ B Q K B N R 
7 | P P P _ P P P P 
6 | _ _ _ _ _ _ _ _ 
5 | N N _ P _ _ _ _ 
4 | P _ _ _ _ _ _ P 
3 | _ _ _ P _ _ _ _ 
2 | _ P P _ P P P _ 
1 | R _ B Q K B N R 
-------------------
  | A B C D E F G H 

Turn of: black
Succesful move
c7c6
8 | R _ B Q K B N R 
7 | P P _ _ P P P P 
6 | _ _ P _ _ _ _ _ 
5 | N N _ P _ _ _ _ 
4 | P _ _ _ _ _ _ P 
3 | _ _ _ P _ _ _ _ 
2 | _ P P _ P P P _ 
1 | R _ B Q K B N R 
-------------------
  | A B C D E F G H 

Turn of: white
Succesful move
e2e4
8 | R _ B Q K B N R 
7 | P P _ _ P P P P 
6 | _ _ P _ _ _ _ _ 
5 | N N _ P _ _ _ _ 
4 | P _ _ _ P _ _ P 
3 | _ _ _ P _ _ _ _ 
2 | _ P P _ _ P P _ 
1 | R _ B Q K B N R 
-------------------
  | A B C D E F G H 

Turn of: black
Succesful move
c6c5
8 | R _ B Q K B N R 
7 | P P _ _ P P P P 
6 | _ _ _ _ _ _ _ _ 
5 | N N P P _ _ _ _ 
4 | P _ _ _ P _ _ P 
3 | _ _ _ P _ _ _ _ 
2 | _ P P _ _ P P _ 
1 | R _ B Q K B N R 
-------------------
  | A B C D E F G H 

Turn of: white
Succesful move
e4e5
8 | R _ B Q K B N R 
7 | P P _ _ P P P P 
6 | _ _ _ _ _ _ _ _ 
5 | N N P P P _ _ _ 
4 | P _ _ _ _ _ _ P 
3 | _ _ _ P _ _ _ _ 
2 | _ P P _ _ P P _ 
1 | R _ B Q K B N R 
-------------------
  | A B C D E F G H 

Turn of: black
Succesful move
e8d7
8 | R _ B Q _ B N R 
7 | P P _ K P P P P 
6 | _ _ _ _ _ _ _ _ 
5 | N N P P P _ _ _ 
4 | P _ _ _ _ _ _ P 
3 | _ _ _ P _ _ _ _ 
2 | _ P P _ _ P P _ 
1 | R _ B Q K B N R 
-------------------
  | A B C D E F G H 

Turn of: white
Succesful move
b5d4
8 | R _ B Q _ B N R 
7 | P P _ K P P P P 
6 | _ _ _ _ _ _ _ _ 
5 | N _ P P P _ _ _ 
4 | P _ _ N _ _ _ P 
3 | _ _ _ P _ _ _ _ 
2 | _ P P _ _ P P _ 
1 | R _ B Q K B N R 
-------------------
  | A B C D E F G H 

Turn of: black
Succesful move
a5c4
8 | R _ B Q _ B N R 
7 | P P _ K P P P P 
6 | _ _ _ _ _ _ _ _ 
5 | _ _ P P P _ _ _ 
4 | P _ N N _ _ _ P 
3 | _ _ _ P _ _ _ _ 
2 | _ P P _ _ P P _ 
1 | R _ B Q K B N R 
-------------------
  | A B C D E F G H 

Turn of: white
Succesful move
d4f3
8 | R _ B Q _ B N R 
7 | P P _ K P P P P 
6 | _ _ _ _ _ _ _ _ 
5 | _ _ P P P _ _ _ 
4 | P _ N _ _ _ _ P 
3 | _ _ _ P _ N _ _ 
2 | _ P P _ _ P P _ 
1 | R _ B Q K B N R 
-------------------
  | A B C D E F G H 

Turn of: black
Succesful move
b7b5
8 | R _ B Q _ B N R 
7 | P _ _ K P P P P 
6 | _ _ _ _ _ _ _ _ 
5 | _ P P P P _ _ _ 
4 | P _ N _ _ _ _ P 
3 | _ _ _ P _ N _ _ 
2 | _ P P _ _ P P _ 
1 | R _ B Q K B N R 
-------------------
  | A B C D E F G H 

We are playing as White
Move history:
h2h4
b8c6
b1c3
c6a5
c3b5
d7d6
d2d3
d6d5
a2a4
c7c6
e2e4
c6c5
e4e5
e8d7
b5d4
a5c4
d4f3
b7b5
8 | R _ B Q _ B N R 
7 | P _ _ K P P P P 
6 | _ _ _ _ _ _ _ _ 
5 | _ P P P P _ _ _ 
4 | P _ N _ _ _ _ P 
3 | _ _ _ P _ N _ _ 
2 | _ P P _ _ P P _ 
1 | R _ B Q K B N R 
-------------------
  | A B C D E F G H 

It is white's turn to play.
AI's move: f1e2
Move written: f1e2
[32;1m[Game] [0mPlayer's error code: 0
[32;1m[Game] [0mChecking move validity...
[32;1m[Board] [0mInitializing board...
[32;1m[Board] [0mLoading history file `championship/lizzie-iii-alabtros/history.csv`...
[32;1m[Board] [0mLoaded 18 move(s).
[32;1m[Board] [0mLoading move file `championship/lizzie-iii-alabtros/move.csv`...
[32;1m[Board] [0mWhite player is playing f1 to e2.
[32;1m[Board] [0m
[32;1m[Board] [0m    a b c d e f g h 
[32;1m[Board] [0m  -------------------
[32;1m[Board] [0m8 ||[30;1mr[0m| |[30;1mb[0m|[30;1mQ[0m|[7;1m [0m|[30;1mb[0m|[30;1mk[0m|[30;1mr[0m|| 8
[32;1m[Board] [0m  -------------------
[32;1m[Board] [0m7 ||[30;1mp[0m|[7;1m [0m| |[30;1mK[0m|[30;1mp[0m|[30;1mp[0m|[30;1mp[0m|[30;1mp[0m|| 7
[32;1m[Board] [0m  -------------------
[32;1m[Board] [0m6 ||[7;1m [0m| |[7;1m [0m| |[7;1m [0m| |[7;1m [0m| || 6
[32;1m[Board] [0m  -------------------
[32;1m[Board] [0m5 || |[30;1mp[0m|[30;1mp[0m|[30;1mp[0m|[0;1mp[0m|[7;1m [0m| |[7;1m [0m|| 5
[32;1m[Board] [0m  -------------------
[32;1m[Board] [0m4 ||[0;1mp[0m| |[30;1mk[0m| |[7;1m [0m| |[7;1m [0m|[0;1mp[0m|| 4
[32;1m[Board] [0m  -------------------
[32;1m[Board] [0m3 || |[7;1m [0m| |[0;1mp[0m| |[0;1mk[0m| |[7;1m [0m|| 3
[32;1m[Board] [0m  -------------------
[32;1m[Board] [0m2 ||[7;1m [0m|[0;1mp[0m|[0;1mp[0m| |[0;1mb[0m|[0;1mp[0m|[0;1mp[0m| || 2
[32;1m[Board] [0m  -------------------
[32;1m[Board] [0m1 ||[0;1mr[0m|[7;1m [0m|[0;1mb[0m|[0;1mQ[0m|[0;1mK[0m|[7;1m [0m|[0;1mk[0m|[0;1mr[0m|| 1
[32;1m[Board] [0m  -------------------
[32;1m[Board] [0m    a b c d e f g h
[32;1m[Board] [0m
[32;1m[Referee] [0mThis is the turn of the Black player...
8| r . b q . b n r 
7| p . . k p p p p 
6| . . . . . . . . 
5| . p p p P . . . 
4| P . n . . . . P 
3| . . . P . N . . 
2| . P P . B P P . 
1| R . B Q K . N R 
-| A|B|C|D|E|F|G|H
b5a4
b5b4
d5d4
a7a6
a7a5
e7e6
f7f6
f7f5
g7g6
g7g5
h7h6
h7h5
c4b2
c4d2
c4a3
c4e3
c4a5
c4e5
c4b6
c4d6
g8f6
g8h6
c8a6
c8b7
a8b8
d8e8
d8a5
d8b6
d8c7
d7c6
d7e6
d7c7
d7e8
[32;1m[Game] [0mPlayer's error code: 0
[32;1m[Game] [0mChecking move validity...
[32;1m[Board] [0mInitializing board...
[32;1m[Board] [0mLoading history file `championship/lizzie-iii-alabtros/history.csv`...
[32;1m[Board] [0mLoaded 19 move(s).
[32;1m[Board] [0mLoading move file `championship/lizzie-iii-alabtros/move.csv`...
[32;1m[Board] [0mBlack player is playing c4 to e3.
[32;1m[Board] [0m
[32;1m[Board] [0m    a b c d e f g h 
[32;1m[Board] [0m  -------------------
[32;1m[Board] [0m8 ||[30;1mr[0m| |[30;1mb[0m|[30;1mQ[0m|[7;1m [0m|[30;1mb[0m|[30;1mk[0m|[30;1mr[0m|| 8
[32;1m[Board] [0m  -------------------
[32;1m[Board] [0m7 ||[30;1mp[0m|[7;1m [0m| |[30;1mK[0m|[30;1mp[0m|[30;1mp[0m|[30;1mp[0m|[30;1mp[0m|| 7
[32;1m[Board] [0m  -------------------
[32;1m[Board] [0m6 ||[7;1m [0m| |[7;1m [0m| |[7;1m [0m| |[7;1m [0m| || 6
[32;1m[Board] [0m  -------------------
[32;1m[Board] [0m5 || |[30;1mp[0m|[30;1mp[0m|[30;1mp[0m|[0;1mp[0m|[7;1m [0m| |[7;1m [0m|| 5
[32;1m[Board] [0m  -------------------
[32;1m[Board] [0m4 ||[0;1mp[0m| |[7;1m [0m| |[7;1m [0m| |[7;1m [0m|[0;1mp[0m|| 4
[32;1m[Board] [0m  -------------------
[32;1m[Board] [0m3 || |[7;1m [0m| |[0;1mp[0m|[30;1mk[0m|[0;1mk[0m| |[7;1m [0m|| 3
[32;1m[Board] [0m  -------------------
[32;1m[Board] [0m2 ||[7;1m [0m|[0;1mp[0m|[0;1mp[0m| |[0;1mb[0m|[0;1mp[0m|[0;1mp[0m| || 2
[32;1m[Board] [0m  -------------------
[32;1m[Board] [0m1 ||[0;1mr[0m|[7;1m [0m|[0;1mb[0m|[0;1mQ[0m|[0;1mK[0m|[7;1m [0m|[0;1mk[0m|[0;1mr[0m|| 1
[32;1m[Board] [0m  -------------------
[32;1m[Board] [0m    a b c d e f g h
[32;1m[Board] [0m
[32;1m[Referee] [0mThis is the turn of the White player...
Input file: championship/lizzie-iii-alabtros/history.csv
Output file: championship/lizzie-iii-alabtros/move.csv
Turn of: white
Succesful move
h2h4
8 | R N B Q K B N R 
7 | P P P P P P P P 
6 | _ _ _ _ _ _ _ _ 
5 | _ _ _ _ _ _ _ _ 
4 | _ _ _ _ _ _ _ P 
3 | _ _ _ _ _ _ _ _ 
2 | P P P P P P P _ 
1 | R N B Q K B N R 
-------------------
  | A B C D E F G H 

Turn of: black
Succesful move
b8c6
8 | R _ B Q K B N R 
7 | P P P P P P P P 
6 | _ _ N _ _ _ _ _ 
5 | _ _ _ _ _ _ _ _ 
4 | _ _ _ _ _ _ _ P 
3 | _ _ _ _ _ _ _ _ 
2 | P P P P P P P _ 
1 | R N B Q K B N R 
-------------------
  | A B C D E F G H 

Turn of: white
Succesful move
b1c3
8 | R _ B Q K B N R 
7 | P P P P P P P P 
6 | _ _ N _ _ _ _ _ 
5 | _ _ _ _ _ _ _ _ 
4 | _ _ _ _ _ _ _ P 
3 | _ _ N _ _ _ _ _ 
2 | P P P P P P P _ 
1 | R _ B Q K B N R 
-------------------
  | A B C D E F G H 

Turn of: black
Succesful move
c6a5
8 | R _ B Q K B N R 
7 | P P P P P P P P 
6 | _ _ _ _ _ _ _ _ 
5 | N _ _ _ _ _ _ _ 
4 | _ _ _ _ _ _ _ P 
3 | _ _ N _ _ _ _ _ 
2 | P P P P P P P _ 
1 | R _ B Q K B N R 
-------------------
  | A B C D E F G H 

Turn of: white
Succesful move
c3b5
8 | R _ B Q K B N R 
7 | P P P P P P P P 
6 | _ _ _ _ _ _ _ _ 
5 | N N _ _ _ _ _ _ 
4 | _ _ _ _ _ _ _ P 
3 | _ _ _ _ _ _ _ _ 
2 | P P P P P P P _ 
1 | R _ B Q K B N R 
-------------------
  | A B C D E F G H 

Turn of: black
Succesful move
d7d6
8 | R _ B Q K B N R 
7 | P P P _ P P P P 
6 | _ _ _ P _ _ _ _ 
5 | N N _ _ _ _ _ _ 
4 | _ _ _ _ _ _ _ P 
3 | _ _ _ _ _ _ _ _ 
2 | P P P P P P P _ 
1 | R _ B Q K B N R 
-------------------
  | A B C D E F G H 

Turn of: white
Succesful move
d2d3
8 | R _ B Q K B N R 
7 | P P P _ P P P P 
6 | _ _ _ P _ _ _ _ 
5 | N N _ _ _ _ _ _ 
4 | _ _ _ _ _ _ _ P 
3 | _ _ _ P _ _ _ _ 
2 | P P P _ P P P _ 
1 | R _ B Q K B N R 
-------------------
  | A B C D E F G H 

Turn of: black
Succesful move
d6d5
8 | R _ B Q K B N R 
7 | P P P _ P P P P 
6 | _ _ _ _ _ _ _ _ 
5 | N N _ P _ _ _ _ 
4 | _ _ _ _ _ _ _ P 
3 | _ _ _ P _ _ _ _ 
2 | P P P _ P P P _ 
1 | R _ B Q K B N R 
-------------------
  | A B C D E F G H 

Turn of: white
Succesful move
a2a4
8 | R _ B Q K B N R 
7 | P P P _ P P P P 
6 | _ _ _ _ _ _ _ _ 
5 | N N _ P _ _ _ _ 
4 | P _ _ _ _ _ _ P 
3 | _ _ _ P _ _ _ _ 
2 | _ P P _ P P P _ 
1 | R _ B Q K B N R 
-------------------
  | A B C D E F G H 

Turn of: black
Succesful move
c7c6
8 | R _ B Q K B N R 
7 | P P _ _ P P P P 
6 | _ _ P _ _ _ _ _ 
5 | N N _ P _ _ _ _ 
4 | P _ _ _ _ _ _ P 
3 | _ _ _ P _ _ _ _ 
2 | _ P P _ P P P _ 
1 | R _ B Q K B N R 
-------------------
  | A B C D E F G H 

Turn of: white
Succesful move
e2e4
8 | R _ B Q K B N R 
7 | P P _ _ P P P P 
6 | _ _ P _ _ _ _ _ 
5 | N N _ P _ _ _ _ 
4 | P _ _ _ P _ _ P 
3 | _ _ _ P _ _ _ _ 
2 | _ P P _ _ P P _ 
1 | R _ B Q K B N R 
-------------------
  | A B C D E F G H 

Turn of: black
Succesful move
c6c5
8 | R _ B Q K B N R 
7 | P P _ _ P P P P 
6 | _ _ _ _ _ _ _ _ 
5 | N N P P _ _ _ _ 
4 | P _ _ _ P _ _ P 
3 | _ _ _ P _ _ _ _ 
2 | _ P P _ _ P P _ 
1 | R _ B Q K B N R 
-------------------
  | A B C D E F G H 

Turn of: white
Succesful move
e4e5
8 | R _ B Q K B N R 
7 | P P _ _ P P P P 
6 | _ _ _ _ _ _ _ _ 
5 | N N P P P _ _ _ 
4 | P _ _ _ _ _ _ P 
3 | _ _ _ P _ _ _ _ 
2 | _ P P _ _ P P _ 
1 | R _ B Q K B N R 
-------------------
  | A B C D E F G H 

Turn of: black
Succesful move
e8d7
8 | R _ B Q _ B N R 
7 | P P _ K P P P P 
6 | _ _ _ _ _ _ _ _ 
5 | N N P P P _ _ _ 
4 | P _ _ _ _ _ _ P 
3 | _ _ _ P _ _ _ _ 
2 | _ P P _ _ P P _ 
1 | R _ B Q K B N R 
-------------------
  | A B C D E F G H 

Turn of: white
Succesful move
b5d4
8 | R _ B Q _ B N R 
7 | P P _ K P P P P 
6 | _ _ _ _ _ _ _ _ 
5 | N _ P P P _ _ _ 
4 | P _ _ N _ _ _ P 
3 | _ _ _ P _ _ _ _ 
2 | _ P P _ _ P P _ 
1 | R _ B Q K B N R 
-------------------
  | A B C D E F G H 

Turn of: black
Succesful move
a5c4
8 | R _ B Q _ B N R 
7 | P P _ K P P P P 
6 | _ _ _ _ _ _ _ _ 
5 | _ _ P P P _ _ _ 
4 | P _ N N _ _ _ P 
3 | _ _ _ P _ _ _ _ 
2 | _ P P _ _ P P _ 
1 | R _ B Q K B N R 
-------------------
  | A B C D E F G H 

Turn of: white
Succesful move
d4f3
8 | R _ B Q _ B N R 
7 | P P _ K P P P P 
6 | _ _ _ _ _ _ _ _ 
5 | _ _ P P P _ _ _ 
4 | P _ N _ _ _ _ P 
3 | _ _ _ P _ N _ _ 
2 | _ P P _ _ P P _ 
1 | R _ B Q K B N R 
-------------------
  | A B C D E F G H 

Turn of: black
Succesful move
b7b5
8 | R _ B Q _ B N R 
7 | P _ _ K P P P P 
6 | _ _ _ _ _ _ _ _ 
5 | _ P P P P _ _ _ 
4 | P _ N _ _ _ _ P 
3 | _ _ _ P _ N _ _ 
2 | _ P P _ _ P P _ 
1 | R _ B Q K B N R 
-------------------
  | A B C D E F G H 

Turn of: white
Succesful move
f1e2
8 | R _ B Q _ B N R 
7 | P _ _ K P P P P 
6 | _ _ _ _ _ _ _ _ 
5 | _ P P P P _ _ _ 
4 | P _ N _ _ _ _ P 
3 | _ _ _ P _ N _ _ 
2 | _ P P _ B P P _ 
1 | R _ B Q K _ N R 
-------------------
  | A B C D E F G H 

Turn of: black
Succesful move
c4e3
8 | R _ B Q _ B N R 
7 | P _ _ K P P P P 
6 | _ _ _ _ _ _ _ _ 
5 | _ P P P P _ _ _ 
4 | P _ _ _ _ _ _ P 
3 | _ _ _ P N N _ _ 
2 | _ P P _ B P P _ 
1 | R _ B Q K _ N R 
-------------------
  | A B C D E F G H 

We are playing as White
Move history:
h2h4
b8c6
b1c3
c6a5
c3b5
d7d6
d2d3
d6d5
a2a4
c7c6
e2e4
c6c5
e4e5
e8d7
b5d4
a5c4
d4f3
b7b5
f1e2
c4e3
8 | R _ B Q _ B N R 
7 | P _ _ K P P P P 
6 | _ _ _ _ _ _ _ _ 
5 | _ P P P P _ _ _ 
4 | P _ _ _ _ _ _ P 
3 | _ _ _ P N N _ _ 
2 | _ P P _ B P P _ 
1 | R _ B Q K _ N R 
-------------------
  | A B C D E F G H 

It is white's turn to play.
AI's move: a1a3
Move written: a1a3
[32;1m[Game] [0mPlayer's error code: 0
[32;1m[Game] [0mChecking move validity...
[32;1m[Board] [0mInitializing board...
[32;1m[Board] [0mLoading history file `championship/lizzie-iii-alabtros/history.csv`...
[32;1m[Board] [0mLoaded 20 move(s).
[32;1m[Board] [0mLoading move file `championship/lizzie-iii-alabtros/move.csv`...
[32;1m[Board] [0mWhite player is playing a1 to a3.
[32;1m[Board] [0m
[32;1m[Board] [0m    a b c d e f g h 
[32;1m[Board] [0m  -------------------
[32;1m[Board] [0m8 ||[30;1mr[0m| |[30;1mb[0m|[30;1mQ[0m|[7;1m [0m|[30;1mb[0m|[30;1mk[0m|[30;1mr[0m|| 8
[32;1m[Board] [0m  -------------------
[32;1m[Board] [0m7 ||[30;1mp[0m|[7;1m [0m| |[30;1mK[0m|[30;1mp[0m|[30;1mp[0m|[30;1mp[0m|[30;1mp[0m|| 7
[32;1m[Board] [0m  -------------------
[32;1m[Board] [0m6 ||[7;1m [0m| |[7;1m [0m| |[7;1m [0m| |[7;1m [0m| || 6
[32;1m[Board] [0m  -------------------
[32;1m[Board] [0m5 || |[30;1mp[0m|[30;1mp[0m|[30;1mp[0m|[0;1mp[0m|[7;1m [0m| |[7;1m [0m|| 5
[32;1m[Board] [0m  -------------------
[32;1m[Board] [0m4 ||[0;1mp[0m| |[7;1m [0m| |[7;1m [0m| |[7;1m [0m|[0;1mp[0m|| 4
[32;1m[Board] [0m  -------------------
[32;1m[Board] [0m3 ||[0;1mr[0m|[7;1m [0m| |[0;1mp[0m|[30;1mk[0m|[0;1mk[0m| |[7;1m [0m|| 3
[32;1m[Board] [0m  -------------------
[32;1m[Board] [0m2 ||[7;1m [0m|[0;1mp[0m|[0;1mp[0m| |[0;1mb[0m|[0;1mp[0m|[0;1mp[0m| || 2
[32;1m[Board] [0m  -------------------
[32;1m[Board] [0m1 || |[7;1m [0m|[0;1mb[0m|[0;1mQ[0m|[0;1mK[0m|[7;1m [0m|[0;1mk[0m|[0;1mr[0m|| 1
[32;1m[Board] [0m  -------------------
[32;1m[Board] [0m    a b c d e f g h
[32;1m[Board] [0m
[32;1m[Referee] [0mThis is the turn of the Black player...
8| r . b q . b n r 
7| p . . k p p p p 
6| . . . . . . . . 
5| . p p p P . . . 
4| P . . . . . . P 
3| R . . P n N . . 
2| . P P . B P P . 
1| . . B Q K . N R 
-| A|B|C|D|E|F|G|H
b5a4
b5b4
c5c4
d5d4
a7a6
a7a5
e7e6
f7f6
f7f5
g7g6
g7g5
h7h6
h7h5
e3d1
e3f1
e3c2
e3g2
e3c4
e3g4
e3f5
g8f6
g8h6
c8a6
c8b7
a8b8
d8e8
d8a5
d8b6
d8c7
d7c6
d7e6
d7c7
d7e8
[32;1m[Game] [0mPlayer's error code: 0
[32;1m[Game] [0mChecking move validity...
[32;1m[Board] [0mInitializing board...
[32;1m[Board] [0mLoading history file `championship/lizzie-iii-alabtros/history.csv`...
[32;1m[Board] [0mLoaded 21 move(s).
[32;1m[Board] [0mLoading move file `championship/lizzie-iii-alabtros/move.csv`...
[32;1m[Board] [0mBlack player is playing d8 to e8.
[32;1m[Board] [0m
[32;1m[Board] [0m    a b c d e f g h 
[32;1m[Board] [0m  -------------------
[32;1m[Board] [0m8 ||[30;1mr[0m| |[30;1mb[0m| |[30;1mQ[0m|[30;1mb[0m|[30;1mk[0m|[30;1mr[0m|| 8
[32;1m[Board] [0m  -------------------
[32;1m[Board] [0m7 ||[30;1mp[0m|[7;1m [0m| |[30;1mK[0m|[30;1mp[0m|[30;1mp[0m|[30;1mp[0m|[30;1mp[0m|| 7
[32;1m[Board] [0m  -------------------
[32;1m[Board] [0m6 ||[7;1m [0m| |[7;1m [0m| |[7;1m [0m| |[7;1m [0m| || 6
[32;1m[Board] [0m  -------------------
[32;1m[Board] [0m5 || |[30;1mp[0m|[30;1mp[0m|[30;1mp[0m|[0;1mp[0m|[7;1m [0m| |[7;1m [0m|| 5
[32;1m[Board] [0m  -------------------
[32;1m[Board] [0m4 ||[0;1mp[0m| |[7;1m [0m| |[7;1m [0m| |[7;1m [0m|[0;1mp[0m|| 4
[32;1m[Board] [0m  -------------------
[32;1m[Board] [0m3 ||[0;1mr[0m|[7;1m [0m| |[0;1mp[0m|[30;1mk[0m|[0;1mk[0m| |[7;1m [0m|| 3
[32;1m[Board] [0m  -------------------
[32;1m[Board] [0m2 ||[7;1m [0m|[0;1mp[0m|[0;1mp[0m| |[0;1mb[0m|[0;1mp[0m|[0;1mp[0m| || 2
[32;1m[Board] [0m  -------------------
[32;1m[Board] [0m1 || |[7;1m [0m|[0;1mb[0m|[0;1mQ[0m|[0;1mK[0m|[7;1m [0m|[0;1mk[0m|[0;1mr[0m|| 1
[32;1m[Board] [0m  -------------------
[32;1m[Board] [0m    a b c d e f g h
[32;1m[Board] [0m
[32;1m[Referee] [0mThis is the turn of the White player...
Input file: championship/lizzie-iii-alabtros/history.csv
Output file: championship/lizzie-iii-alabtros/move.csv
Turn of: white
Succesful move
h2h4
8 | R N B Q K B N R 
7 | P P P P P P P P 
6 | _ _ _ _ _ _ _ _ 
5 | _ _ _ _ _ _ _ _ 
4 | _ _ _ _ _ _ _ P 
3 | _ _ _ _ _ _ _ _ 
2 | P P P P P P P _ 
1 | R N B Q K B N R 
-------------------
  | A B C D E F G H 

Turn of: black
Succesful move
b8c6
8 | R _ B Q K B N R 
7 | P P P P P P P P 
6 | _ _ N _ _ _ _ _ 
5 | _ _ _ _ _ _ _ _ 
4 | _ _ _ _ _ _ _ P 
3 | _ _ _ _ _ _ _ _ 
2 | P P P P P P P _ 
1 | R N B Q K B N R 
-------------------
  | A B C D E F G H 

Turn of: white
Succesful move
b1c3
8 | R _ B Q K B N R 
7 | P P P P P P P P 
6 | _ _ N _ _ _ _ _ 
5 | _ _ _ _ _ _ _ _ 
4 | _ _ _ _ _ _ _ P 
3 | _ _ N _ _ _ _ _ 
2 | P P P P P P P _ 
1 | R _ B Q K B N R 
-------------------
  | A B C D E F G H 

Turn of: black
Succesful move
c6a5
8 | R _ B Q K B N R 
7 | P P P P P P P P 
6 | _ _ _ _ _ _ _ _ 
5 | N _ _ _ _ _ _ _ 
4 | _ _ _ _ _ _ _ P 
3 | _ _ N _ _ _ _ _ 
2 | P P P P P P P _ 
1 | R _ B Q K B N R 
-------------------
  | A B C D E F G H 

Turn of: white
Succesful move
c3b5
8 | R _ B Q K B N R 
7 | P P P P P P P P 
6 | _ _ _ _ _ _ _ _ 
5 | N N _ _ _ _ _ _ 
4 | _ _ _ _ _ _ _ P 
3 | _ _ _ _ _ _ _ _ 
2 | P P P P P P P _ 
1 | R _ B Q K B N R 
-------------------
  | A B C D E F G H 

Turn of: black
Succesful move
d7d6
8 | R _ B Q K B N R 
7 | P P P _ P P P P 
6 | _ _ _ P _ _ _ _ 
5 | N N _ _ _ _ _ _ 
4 | _ _ _ _ _ _ _ P 
3 | _ _ _ _ _ _ _ _ 
2 | P P P P P P P _ 
1 | R _ B Q K B N R 
-------------------
  | A B C D E F G H 

Turn of: white
Succesful move
d2d3
8 | R _ B Q K B N R 
7 | P P P _ P P P P 
6 | _ _ _ P _ _ _ _ 
5 | N N _ _ _ _ _ _ 
4 | _ _ _ _ _ _ _ P 
3 | _ _ _ P _ _ _ _ 
2 | P P P _ P P P _ 
1 | R _ B Q K B N R 
-------------------
  | A B C D E F G H 

Turn of: black
Succesful move
d6d5
8 | R _ B Q K B N R 
7 | P P P _ P P P P 
6 | _ _ _ _ _ _ _ _ 
5 | N N _ P _ _ _ _ 
4 | _ _ _ _ _ _ _ P 
3 | _ _ _ P _ _ _ _ 
2 | P P P _ P P P _ 
1 | R _ B Q K B N R 
-------------------
  | A B C D E F G H 

Turn of: white
Succesful move
a2a4
8 | R _ B Q K B N R 
7 | P P P _ P P P P 
6 | _ _ _ _ _ _ _ _ 
5 | N N _ P _ _ _ _ 
4 | P _ _ _ _ _ _ P 
3 | _ _ _ P _ _ _ _ 
2 | _ P P _ P P P _ 
1 | R _ B Q K B N R 
-------------------
  | A B C D E F G H 

Turn of: black
Succesful move
c7c6
8 | R _ B Q K B N R 
7 | P P _ _ P P P P 
6 | _ _ P _ _ _ _ _ 
5 | N N _ P _ _ _ _ 
4 | P _ _ _ _ _ _ P 
3 | _ _ _ P _ _ _ _ 
2 | _ P P _ P P P _ 
1 | R _ B Q K B N R 
-------------------
  | A B C D E F G H 

Turn of: white
Succesful move
e2e4
8 | R _ B Q K B N R 
7 | P P _ _ P P P P 
6 | _ _ P _ _ _ _ _ 
5 | N N _ P _ _ _ _ 
4 | P _ _ _ P _ _ P 
3 | _ _ _ P _ _ _ _ 
2 | _ P P _ _ P P _ 
1 | R _ B Q K B N R 
-------------------
  | A B C D E F G H 

Turn of: black
Succesful move
c6c5
8 | R _ B Q K B N R 
7 | P P _ _ P P P P 
6 | _ _ _ _ _ _ _ _ 
5 | N N P P _ _ _ _ 
4 | P _ _ _ P _ _ P 
3 | _ _ _ P _ _ _ _ 
2 | _ P P _ _ P P _ 
1 | R _ B Q K B N R 
-------------------
  | A B C D E F G H 

Turn of: white
Succesful move
e4e5
8 | R _ B Q K B N R 
7 | P P _ _ P P P P 
6 | _ _ _ _ _ _ _ _ 
5 | N N P P P _ _ _ 
4 | P _ _ _ _ _ _ P 
3 | _ _ _ P _ _ _ _ 
2 | _ P P _ _ P P _ 
1 | R _ B Q K B N R 
-------------------
  | A B C D E F G H 

Turn of: black
Succesful move
e8d7
8 | R _ B Q _ B N R 
7 | P P _ K P P P P 
6 | _ _ _ _ _ _ _ _ 
5 | N N P P P _ _ _ 
4 | P _ _ _ _ _ _ P 
3 | _ _ _ P _ _ _ _ 
2 | _ P P _ _ P P _ 
1 | R _ B Q K B N R 
-------------------
  | A B C D E F G H 

Turn of: white
Succesful move
b5d4
8 | R _ B Q _ B N R 
7 | P P _ K P P P P 
6 | _ _ _ _ _ _ _ _ 
5 | N _ P P P _ _ _ 
4 | P _ _ N _ _ _ P 
3 | _ _ _ P _ _ _ _ 
2 | _ P P _ _ P P _ 
1 | R _ B Q K B N R 
-------------------
  | A B C D E F G H 

Turn of: black
Succesful move
a5c4
8 | R _ B Q _ B N R 
7 | P P _ K P P P P 
6 | _ _ _ _ _ _ _ _ 
5 | _ _ P P P _ _ _ 
4 | P _ N N _ _ _ P 
[...]
b8b7
8 | R _ B _ _ B _ R 
7 | _ K _ _ _ _ _ P 
6 | P _ _ _ P R P _ 
5 | P _ P _ P _ _ _ 
4 | _ _ _ _ P _ _ P 
3 | _ _ P _ _ _ N _ 
2 | _ P _ B N _ B N 
1 | _ _ _ _ K _ _ _ 
-------------------
  | A B C D E F G H 

Turn of: white
Succesful move
f6f5
8 | R _ B _ _ B _ R 
7 | _ K _ _ _ _ _ P 
6 | P _ _ _ P _ P _ 
5 | P _ P _ P R _ _ 
4 | _ _ _ _ P _ _ P 
3 | _ _ P _ _ _ N _ 
2 | _ P _ B N _ B N 
1 | _ _ _ _ K _ _ _ 
-------------------
  | A B C D E F G H 

Turn of: black
Succesful move
c5c4
8 | R _ B _ _ B _ R 
7 | _ K _ _ _ _ _ P 
6 | P _ _ _ P _ P _ 
5 | P _ _ _ P R _ _ 
4 | _ _ P _ P _ _ P 
3 | _ _ P _ _ _ N _ 
2 | _ P _ B N _ B N 
1 | _ _ _ _ K _ _ _ 
-------------------
  | A B C D E F G H 

Turn of: white
Succesful move
e1f2
8 | R _ B _ _ B _ R 
7 | _ K _ _ _ _ _ P 
6 | P _ _ _ P _ P _ 
5 | P _ _ _ P R _ _ 
4 | _ _ P _ P _ _ P 
3 | _ _ P _ _ _ N _ 
2 | _ P _ B N K B N 
1 | _ _ _ _ _ _ _ _ 
-------------------
  | A B C D E F G H 

Turn of: black
Succesful move
h7h5
8 | R _ B _ _ B _ R 
7 | _ K _ _ _ _ _ _ 
6 | P _ _ _ P _ P _ 
5 | P _ _ _ P R _ P 
4 | _ _ P _ P _ _ P 
3 | _ _ P _ _ _ N _ 
2 | _ P _ B N K B N 
1 | _ _ _ _ _ _ _ _ 
-------------------
  | A B C D E F G H 

Turn of: white
Succesful move
f2e1
8 | R _ B _ _ B _ R 
7 | _ K _ _ _ _ _ _ 
6 | P _ _ _ P _ P _ 
5 | P _ _ _ P R _ P 
4 | _ _ P _ P _ _ P 
3 | _ _ P _ _ _ N _ 
2 | _ P _ B N _ B N 
1 | _ _ _ _ K _ _ _ 
-------------------
  | A B C D E F G H 

Turn of: black
Succesful move
b7a7
8 | R _ B _ _ B _ R 
7 | K _ _ _ _ _ _ _ 
6 | P _ _ _ P _ P _ 
5 | P _ _ _ P R _ P 
4 | _ _ P _ P _ _ P 
3 | _ _ P _ _ _ N _ 
2 | _ P _ B N _ B N 
1 | _ _ _ _ K _ _ _ 
-------------------
  | A B C D E F G H 

Turn of: white
Succesful move
d2e3
8 | R _ B _ _ B _ R 
7 | K _ _ _ _ _ _ _ 
6 | P _ _ _ P _ P _ 
5 | P _ _ _ P R _ P 
4 | _ _ P _ P _ _ P 
3 | _ _ P _ B _ N _ 
2 | _ P _ _ N _ B N 
1 | _ _ _ _ K _ _ _ 
-------------------
  | A B C D E F G H 

Turn of: black
Succesful move
a7b8
8 | R K B _ _ B _ R 
7 | _ _ _ _ _ _ _ _ 
6 | P _ _ _ P _ P _ 
5 | P _ _ _ P R _ P 
4 | _ _ P _ P _ _ P 
3 | _ _ P _ B _ N _ 
2 | _ P _ _ N _ B N 
1 | _ _ _ _ K _ _ _ 
-------------------
  | A B C D E F G H 

Turn of: white
Succesful move
e2c1
8 | R K B _ _ B _ R 
7 | _ _ _ _ _ _ _ _ 
6 | P _ _ _ P _ P _ 
5 | P _ _ _ P R _ P 
4 | _ _ P _ P _ _ P 
3 | _ _ P _ B _ N _ 
2 | _ P _ _ _ _ B N 
1 | _ _ N _ K _ _ _ 
-------------------
  | A B C D E F G H 

Turn of: black
Succesful move
g3h1
8 | R K B _ _ B _ R 
7 | _ _ _ _ _ _ _ _ 
6 | P _ _ _ P _ P _ 
5 | P _ _ _ P R _ P 
4 | _ _ P _ P _ _ P 
3 | _ _ P _ B _ _ _ 
2 | _ P _ _ _ _ B N 
1 | _ _ N _ K _ _ N 
-------------------
  | A B C D E F G H 

Turn of: white
Succesful move
g2f1
8 | R K B _ _ B _ R 
7 | _ _ _ _ _ _ _ _ 
6 | P _ _ _ P _ P _ 
5 | P _ _ _ P R _ P 
4 | _ _ P _ P _ _ P 
3 | _ _ P _ B _ _ _ 
2 | _ P _ _ _ _ _ N 
1 | _ _ N _ K B _ N 
-------------------
  | A B C D E F G H 

Turn of: black
Succesful move
c3b2
8 | R K B _ _ B _ R 
7 | _ _ _ _ _ _ _ _ 
6 | P _ _ _ P _ P _ 
5 | P _ _ _ P R _ P 
4 | _ _ P _ P _ _ P 
3 | _ _ _ _ B _ _ _ 
2 | _ P _ _ _ _ _ N 
1 | _ _ N _ K B _ N 
-------------------
  | A B C D E F G H 

Turn of: white
Succesful move
f5f6
8 | R K B _ _ B _ R 
7 | _ _ _ _ _ _ _ _ 
6 | P _ _ _ P R P _ 
5 | P _ _ _ P _ _ P 
4 | _ _ P _ P _ _ P 
3 | _ _ _ _ B _ _ _ 
2 | _ P _ _ _ _ _ N 
1 | _ _ N _ K B _ N 
-------------------
  | A B C D E F G H 

Turn of: black
Succesful move
c8b7
8 | R K _ _ _ B _ R 
7 | _ B _ _ _ _ _ _ 
6 | P _ _ _ P R P _ 
5 | P _ _ _ P _ _ P 
4 | _ _ P _ P _ _ P 
3 | _ _ _ _ B _ _ _ 
2 | _ P _ _ _ _ _ N 
1 | _ _ N _ K B _ N 
-------------------
  | A B C D E F G H 

Turn of: white
Succesful move
e1d2
8 | R K _ _ _ B _ R 
7 | _ B _ _ _ _ _ _ 
6 | P _ _ _ P R P _ 
5 | P _ _ _ P _ _ P 
4 | _ _ P _ P _ _ P 
3 | _ _ _ _ B _ _ _ 
2 | _ P _ K _ _ _ N 
1 | _ _ N _ _ B _ N 
-------------------
  | A B C D E F G H 

Turn of: black
Succesful move
b8c7
8 | R _ _ _ _ B _ R 
7 | _ B K _ _ _ _ _ 
6 | P _ _ _ P R P _ 
5 | P _ _ _ P _ _ P 
4 | _ _ P _ P _ _ P 
3 | _ _ _ _ B _ _ _ 
2 | _ P _ K _ _ _ N 
1 | _ _ N _ _ B _ N 
-------------------
  | A B C D E F G H 

Turn of: white
Succesful move
e3f2
8 | R _ _ _ _ B _ R 
7 | _ B K _ _ _ _ _ 
6 | P _ _ _ P R P _ 
5 | P _ _ _ P _ _ P 
4 | _ _ P _ P _ _ P 
3 | _ _ _ _ _ _ _ _ 
2 | _ P _ K _ B _ N 
1 | _ _ N _ _ B _ N 
-------------------
  | A B C D E F G H 

Turn of: black
Succesful move
h1f2
8 | R _ _ _ _ B _ R 
7 | _ B K _ _ _ _ _ 
6 | P _ _ _ P R P _ 
5 | P _ _ _ P _ _ P 
4 | _ _ P _ P _ _ P 
3 | _ _ _ _ _ _ _ _ 
2 | _ P _ K _ N _ N 
1 | _ _ N _ _ B _ _ 
-------------------
  | A B C D E F G H 

Turn of: white
Succesful move
f6f3
8 | R _ _ _ _ B _ R 
7 | _ B K _ _ _ _ _ 
6 | P _ _ _ P _ P _ 
5 | P _ _ _ P _ _ P 
4 | _ _ P _ P _ _ P 
3 | _ _ _ _ _ R _ _ 
2 | _ P _ K _ N _ N 
1 | _ _ N _ _ B _ _ 
-------------------
  | A B C D E F G H 

Turn of: black
Succesful move
c7d6
8 | R _ _ _ _ B _ R 
7 | _ B _ _ _ _ _ _ 
6 | P _ _ K P _ P _ 
5 | P _ _ _ P _ _ P 
4 | _ _ P _ P _ _ P 
3 | _ _ _ _ _ R _ _ 
2 | _ P _ K _ N _ N 
1 | _ _ N _ _ B _ _ 
-------------------
  | A B C D E F G H 

Turn of: white
Succesful move
f3g3
8 | R _ _ _ _ B _ R 
7 | _ B _ _ _ _ _ _ 
6 | P _ _ K P _ P _ 
5 | P _ _ _ P _ _ P 
4 | _ _ P _ P _ _ P 
3 | _ _ _ _ _ _ R _ 
2 | _ P _ K _ N _ N 
1 | _ _ N _ _ B _ _ 
-------------------
  | A B C D E F G H 

Turn of: black
Succesful move
b7e4
8 | R _ _ _ _ B _ R 
7 | _ _ _ _ _ _ _ _ 
6 | P _ _ K P _ P _ 
5 | P _ _ _ P _ _ P 
4 | _ _ P _ B _ _ P 
3 | _ _ _ _ _ _ R _ 
2 | _ P _ K _ N _ N 
1 | _ _ N _ _ B _ _ 
-------------------
  | A B C D E F G H 

Turn of: white
Succesful move
g3g4
8 | R _ _ _ _ B _ R 
7 | _ _ _ _ _ _ _ _ 
6 | P _ _ K P _ P _ 
5 | P _ _ _ P _ _ P 
4 | _ _ P _ B _ R P 
3 | _ _ _ _ _ _ _ _ 
2 | _ P _ K _ N _ N 
1 | _ _ N _ _ B _ _ 
-------------------
  | A B C D E F G H 

Turn of: black
Succesful move
f8g7
8 | R _ _ _ _ _ _ R 
7 | _ _ _ _ _ _ B _ 
6 | P _ _ K P _ P _ 
5 | P _ _ _ P _ _ P 
4 | _ _ P _ B _ R P 
3 | _ _ _ _ _ _ _ _ 
2 | _ P _ K _ N _ N 
1 | _ _ N _ _ B _ _ 
-------------------
  | A B C D E F G H 

Turn of: white
Succesful move
d2e3
8 | R _ _ _ _ _ _ R 
7 | _ _ _ _ _ _ B _ 
6 | P _ _ K P _ P _ 
5 | P _ _ _ P _ _ P 
4 | _ _ P _ B _ R P 
3 | _ _ _ _ K _ _ _ 
2 | _ P _ _ _ N _ N 
1 | _ _ N _ _ B _ _ 
-------------------
  | A B C D E F G H 

Turn of: black
Succesful move
d6e7
8 | R _ _ _ _ _ _ R 
7 | _ _ _ _ K _ B _ 
6 | P _ _ _ P _ P _ 
5 | P _ _ _ P _ _ P 
4 | _ _ P _ B _ R P 
3 | _ _ _ _ K _ _ _ 
2 | _ P _ _ _ N _ N 
1 | _ _ N _ _ B _ _ 
-------------------
  | A B C D E F G H 

Turn of: white
Succesful move
e3d2
8 | R _ _ _ _ _ _ R 
7 | _ _ _ _ K _ B _ 
6 | P _ _ _ P _ P _ 
5 | P _ _ _ P _ _ P 
4 | _ _ P _ B _ R P 
3 | _ _ _ _ _ _ _ _ 
2 | _ P _ K _ N _ N 
1 | _ _ N _ _ B _ _ 
-------------------
  | A B C D E F G H 

Turn of: black
Succesful move
f2g4
8 | R _ _ _ _ _ _ R 
7 | _ _ _ _ K _ B _ 
6 | P _ _ _ P _ P _ 
5 | P _ _ _ P _ _ P 
4 | _ _ P _ B _ N P 
3 | _ _ _ _ _ _ _ _ 
2 | _ P _ K _ _ _ N 
1 | _ _ N _ _ B _ _ 
-------------------
  | A B C D E F G H 

Turn of: white
Succesful move
d2d1
8 | R _ _ _ _ _ _ R 
7 | _ _ _ _ K _ B _ 
6 | P _ _ _ P _ P _ 
5 | P _ _ _ P _ _ P 
4 | _ _ P _ B _ N P 
3 | _ _ _ _ _ _ _ _ 
2 | _ P _ _ _ _ _ N 
1 | _ _ N K _ B _ _ 
-------------------
  | A B C D E F G H 

Turn of: black
Succesful move
a8d8
8 | _ _ _ R _ _ _ R 
7 | _ _ _ _ K _ B _ 
6 | P _ _ _ P _ P _ 
5 | P _ _ _ P _ _ P 
4 | _ _ P _ B _ N P 
3 | _ _ _ _ _ _ _ _ 
2 | _ P _ _ _ _ _ N 
1 | _ _ N K _ B _ _ 
-------------------
  | A B C D E F G H 

Turn of: white
Succesful move
c1d3
8 | _ _ _ R _ _ _ R 
7 | _ _ _ _ K _ B _ 
6 | P _ _ _ P _ P _ 
5 | P _ _ _ P _ _ P 
4 | _ _ P _ B _ N P 
3 | _ _ _ N _ _ _ _ 
2 | _ P _ _ _ _ _ N 
1 | _ _ _ K _ B _ _ 
-------------------
  | A B C D E F G H 

Turn of: black
Succesful move
d8b8
8 | _ R _ _ _ _ _ R 
7 | _ _ _ _ K _ B _ 
6 | P _ _ _ P _ P _ 
5 | P _ _ _ P _ _ P 
4 | _ _ P _ B _ N P 
3 | _ _ _ N _ _ _ _ 
2 | _ P _ _ _ _ _ N 
1 | _ _ _ K _ B _ _ 
-------------------
  | A B C D E F G H 

Turn of: white
Succesful move
d3e5
8 | _ R _ _ _ _ _ R 
7 | _ _ _ _ K _ B _ 
6 | P _ _ _ P _ P _ 
5 | P _ _ _ N _ _ P 
4 | _ _ P _ B _ N P 
3 | _ _ _ _ _ _ _ _ 
2 | _ P _ _ _ _ _ N 
1 | _ _ _ K _ B _ _ 
-------------------
  | A B C D E F G H 

Turn of: black
Succesful move
e4h1
8 | _ R _ _ _ _ _ R 
7 | _ _ _ _ K _ B _ 
6 | P _ _ _ P _ P _ 
5 | P _ _ _ N _ _ P 
4 | _ _ P _ _ _ N P 
3 | _ _ _ _ _ _ _ _ 
2 | _ P _ _ _ _ _ N 
1 | _ _ _ K _ B _ B 
-------------------
  | A B C D E F G H 

Turn of: white
Succesful move
d1c2
8 | _ R _ _ _ _ _ R 
7 | _ _ _ _ K _ B _ 
6 | P _ _ _ P _ P _ 
5 | P _ _ _ N _ _ P 
4 | _ _ P _ _ _ N P 
3 | _ _ _ _ _ _ _ _ 
2 | _ P K _ _ _ _ N 
1 | _ _ _ _ _ B _ B 
-------------------
  | A B C D E F G H 

Turn of: black
Succesful move
c4c3
8 | _ R _ _ _ _ _ R 
7 | _ _ _ _ K _ B _ 
6 | P _ _ _ P _ P _ 
5 | P _ _ _ N _ _ P 
4 | _ _ _ _ _ _ N P 
3 | _ _ P _ _ _ _ _ 
2 | _ P K _ _ _ _ N 
1 | _ _ _ _ _ B _ B 
-------------------
  | A B C D E F G H 

Turn of: white
Succesful move
f1e2
8 | _ R _ _ _ _ _ R 
7 | _ _ _ _ K _ B _ 
6 | P _ _ _ P _ P _ 
5 | P _ _ _ N _ _ P 
4 | _ _ _ _ _ _ N P 
3 | _ _ P _ _ _ _ _ 
2 | _ P K _ B _ _ N 
1 | _ _ _ _ _ _ _ B 
-------------------
  | A B C D E F G H 

Turn of: black
Succesful move
b8b7
8 | _ _ _ _ _ _ _ R 
7 | _ R _ _ K _ B _ 
6 | P _ _ _ P _ P _ 
5 | P _ _ _ N _ _ P 
4 | _ _ _ _ _ _ N P 
3 | _ _ P _ _ _ _ _ 
2 | _ P K _ B _ _ N 
1 | _ _ _ _ _ _ _ B 
-------------------
  | A B C D E F G H 

Turn of: white
Succesful move
c2d3
8 | _ _ _ _ _ _ _ R 
7 | _ R _ _ K _ B _ 
6 | P _ _ _ P _ P _ 
5 | P _ _ _ N _ _ P 
4 | _ _ _ _ _ _ N P 
3 | _ _ P K _ _ _ _ 
2 | _ P _ _ B _ _ N 
1 | _ _ _ _ _ _ _ B 
-------------------
  | A B C D E F G H 

Turn of: black
Succesful move
g7e5
8 | _ _ _ _ _ _ _ R 
7 | _ R _ _ K _ _ _ 
6 | P _ _ _ P _ P _ 
5 | P _ _ _ B _ _ P 
4 | _ _ _ _ _ _ N P 
3 | _ _ P K _ _ _ _ 
2 | _ P _ _ B _ _ N 
1 | _ _ _ _ _ _ _ B 
-------------------
  | A B C D E F G H 

Turn of: white
Succesful move
h2f1
8 | _ _ _ _ _ _ _ R 
7 | _ R _ _ K _ _ _ 
6 | P _ _ _ P _ P _ 
5 | P _ _ _ B _ _ P 
4 | _ _ _ _ _ _ N P 
3 | _ _ P K _ _ _ _ 
2 | _ P _ _ B _ _ _ 
1 | _ _ _ _ _ N _ B 
-------------------
  | A B C D E F G H 

Turn of: black
Succesful move
g4f6
8 | _ _ _ _ _ _ _ R 
7 | _ R _ _ K _ _ _ 
6 | P _ _ _ P N P _ 
5 | P _ _ _ B _ _ P 
4 | _ _ _ _ _ _ _ P 
3 | _ _ P K _ _ _ _ 
2 | _ P _ _ B _ _ _ 
1 | _ _ _ _ _ N _ B 
-------------------
  | A B C D E F G H 

Turn of: white
Succesful move
d3c2
8 | _ _ _ _ _ _ _ R 
7 | _ R _ _ K _ _ _ 
6 | P _ _ _ P N P _ 
5 | P _ _ _ B _ _ P 
4 | _ _ _ _ _ _ _ P 
3 | _ _ P _ _ _ _ _ 
2 | _ P K _ B _ _ _ 
1 | _ _ _ _ _ N _ B 
-------------------
  | A B C D E F G H 

Turn of: black
Succesful move
e7d6
8 | _ _ _ _ _ _ _ R 
7 | _ R _ _ _ _ _ _ 
6 | P _ _ K P N P _ 
5 | P _ _ _ B _ _ P 
4 | _ _ _ _ _ _ _ P 
3 | _ _ P _ _ _ _ _ 
2 | _ P K _ B _ _ _ 
1 | _ _ _ _ _ N _ B 
-------------------
  | A B C D E F G H 

Turn of: white
Succesful move
e2c4
8 | _ _ _ _ _ _ _ R 
7 | _ R _ _ _ _ _ _ 
6 | P _ _ K P N P _ 
5 | P _ _ _ B _ _ P 
4 | _ _ B _ _ _ _ P 
3 | _ _ P _ _ _ _ _ 
2 | _ P K _ _ _ _ _ 
1 | _ _ _ _ _ N _ B 
-------------------
  | A B C D E F G H 

Turn of: black
Succesful move
f6e4
8 | _ _ _ _ _ _ _ R 
7 | _ R _ _ _ _ _ _ 
6 | P _ _ K P _ P _ 
5 | P _ _ _ B _ _ P 
4 | _ _ B _ N _ _ P 
3 | _ _ P _ _ _ _ _ 
2 | _ P K _ _ _ _ _ 
1 | _ _ _ _ _ N _ B 
-------------------
  | A B C D E F G H 

Turn of: white
Succesful move
c4e2
8 | _ _ _ _ _ _ _ R 
7 | _ R _ _ _ _ _ _ 
6 | P _ _ K P _ P _ 
5 | P _ _ _ B _ _ P 
4 | _ _ _ _ N _ _ P 
3 | _ _ P _ _ _ _ _ 
2 | _ P K _ B _ _ _ 
1 | _ _ _ _ _ N _ B 
-------------------
  | A B C D E F G H 

Turn of: black
Succesful move
b7e7
8 | _ _ _ _ _ _ _ R 
7 | _ _ _ _ R _ _ _ 
6 | P _ _ K P _ P _ 
5 | P _ _ _ B _ _ P 
4 | _ _ _ _ N _ _ P 
3 | _ _ P _ _ _ _ _ 
2 | _ P K _ B _ _ _ 
1 | _ _ _ _ _ N _ B 
-------------------
  | A B C D E F G H 

Turn of: white
Succesful move
e2h5
8 | _ _ _ _ _ _ _ R 
7 | _ _ _ _ R _ _ _ 
6 | P _ _ K P _ P _ 
5 | P _ _ _ B _ _ B 
4 | _ _ _ _ N _ _ P 
3 | _ _ P _ _ _ _ _ 
2 | _ P K _ _ _ _ _ 
1 | _ _ _ _ _ N _ B 
-------------------
  | A B C D E F G H 

Turn of: black
Succesful move
d6d7
8 | _ _ _ _ _ _ _ R 
7 | _ _ _ K R _ _ _ 
6 | P _ _ _ P _ P _ 
5 | P _ _ _ B _ _ B 
4 | _ _ _ _ N _ _ P 
3 | _ _ P _ _ _ _ _ 
2 | _ P K _ _ _ _ _ 
1 | _ _ _ _ _ N _ B 
-------------------
  | A B C D E F G H 

Turn of: white
Succesful move
f1g3
8 | _ _ _ _ _ _ _ R 
7 | _ _ _ K R _ _ _ 
6 | P _ _ _ P _ P _ 
5 | P _ _ _ B _ _ B 
4 | _ _ _ _ N _ _ P 
3 | _ _ P _ _ _ N _ 
2 | _ P K _ _ _ _ _ 
1 | _ _ _ _ _ _ _ B 
-------------------
  | A B C D E F G H 

Turn of: black
Succesful move
e5g3
8 | _ _ _ _ _ _ _ R 
7 | _ _ _ K R _ _ _ 
6 | P _ _ _ P _ P _ 
5 | P _ _ _ _ _ _ B 
4 | _ _ _ _ N _ _ P 
3 | _ _ P _ _ _ B _ 
2 | _ P K _ _ _ _ _ 
1 | _ _ _ _ _ _ _ B 
-------------------
  | A B C D E F G H 

Turn of: white
Succesful move
h5f3
8 | _ _ _ _ _ _ _ R 
7 | _ _ _ K R _ _ _ 
6 | P _ _ _ P _ P _ 
5 | P _ _ _ _ _ _ _ 
4 | _ _ _ _ N _ _ P 
3 | _ _ P _ _ B B _ 
2 | _ P K _ _ _ _ _ 
1 | _ _ _ _ _ _ _ B 
-------------------
  | A B C D E F G H 

Turn of: black
Succesful move
e4d2
8 | _ _ _ _ _ _ _ R 
7 | _ _ _ K R _ _ _ 
6 | P _ _ _ P _ P _ 
5 | P _ _ _ _ _ _ _ 
4 | _ _ _ _ _ _ _ P 
3 | _ _ P _ _ B B _ 
2 | _ P K N _ _ _ _ 
1 | _ _ _ _ _ _ _ B 
-------------------
  | A B C D E F G H 

Turn of: white
Succesful move
c2c3
8 | _ _ _ _ _ _ _ R 
7 | _ _ _ K R _ _ _ 
6 | P _ _ _ P _ P _ 
5 | P _ _ _ _ _ _ _ 
4 | _ _ _ _ _ _ _ P 
3 | _ _ K _ _ B B _ 
2 | _ P _ N _ _ _ _ 
1 | _ _ _ _ _ _ _ B 
-------------------
  | A B C D E F G H 

Turn of: black
Succesful move
e7f7
8 | _ _ _ _ _ _ _ R 
7 | _ _ _ K _ R _ _ 
6 | P _ _ _ P _ P _ 
5 | P _ _ _ _ _ _ _ 
4 | _ _ _ _ _ _ _ P 
3 | _ _ K _ _ B B _ 
2 | _ P _ N _ _ _ _ 
1 | _ _ _ _ _ _ _ B 
-------------------
  | A B C D E F G H 

Turn of: white
Succesful move
h4h5
8 | _ _ _ _ _ _ _ R 
7 | _ _ _ K _ R _ _ 
6 | P _ _ _ P _ P _ 
5 | P _ _ _ _ _ _ P 
4 | _ _ _ _ _ _ _ _ 
3 | _ _ K _ _ B B _ 
2 | _ P _ N _ _ _ _ 
1 | _ _ _ _ _ _ _ B 
-------------------
  | A B C D E F G H 

Turn of: black
Succesful move
g3f2
8 | _ _ _ _ _ _ _ R 
7 | _ _ _ K _ R _ _ 
6 | P _ _ _ P _ P _ 
5 | P _ _ _ _ _ _ P 
4 | _ _ _ _ _ _ _ _ 
3 | _ _ K _ _ B _ _ 
2 | _ P _ N _ B _ _ 
1 | _ _ _ _ _ _ _ B 
-------------------
  | A B C D E F G H 

Turn of: white
Succesful move
c3b2
8 | _ _ _ _ _ _ _ R 
7 | _ _ _ K _ R _ _ 
6 | P _ _ _ P _ P _ 
5 | P _ _ _ _ _ _ P 
4 | _ _ _ _ _ _ _ _ 
3 | _ _ _ _ _ B _ _ 
2 | _ K _ N _ B _ _ 
1 | _ _ _ _ _ _ _ B 
-------------------
  | A B C D E F G H 

Turn of: black
Succesful move
f7h7
8 | _ _ _ _ _ _ _ R 
7 | _ _ _ K _ _ _ R 
6 | P _ _ _ P _ P _ 
5 | P _ _ _ _ _ _ P 
4 | _ _ _ _ _ _ _ _ 
3 | _ _ _ _ _ B _ _ 
2 | _ K _ N _ B _ _ 
1 | _ _ _ _ _ _ _ B 
-------------------
  | A B C D E F G H 

Turn of: white
Succesful move
f3h1
8 | _ _ _ _ _ _ _ R 
7 | _ _ _ K _ _ _ R 
6 | P _ _ _ P _ P _ 
5 | P _ _ _ _ _ _ P 
4 | _ _ _ _ _ _ _ _ 
3 | _ _ _ _ _ _ _ _ 
2 | _ K _ N _ B _ _ 
1 | _ _ _ _ _ _ _ B 
-------------------
  | A B C D E F G H 

Turn of: black
Succesful move
d2c4
8 | _ _ _ _ _ _ _ R 
7 | _ _ _ K _ _ _ R 
6 | P _ _ _ P _ P _ 
5 | P _ _ _ _ _ _ P 
4 | _ _ N _ _ _ _ _ 
3 | _ _ _ _ _ _ _ _ 
2 | _ K _ _ _ B _ _ 
1 | _ _ _ _ _ _ _ B 
-------------------
  | A B C D E F G H 

Turn of: white
Succesful move
b2c3
8 | _ _ _ _ _ _ _ R 
7 | _ _ _ K _ _ _ R 
6 | P _ _ _ P _ P _ 
5 | P _ _ _ _ _ _ P 
4 | _ _ N _ _ _ _ _ 
3 | _ _ K _ _ _ _ _ 
2 | _ _ _ _ _ B _ _ 
1 | _ _ _ _ _ _ _ B 
-------------------
  | A B C D E F G H 

Turn of: black
Succesful move
f2d4
8 | _ _ _ _ _ _ _ R 
7 | _ _ _ K _ _ _ R 
6 | P _ _ _ P _ P _ 
5 | P _ _ _ _ _ _ P 
4 | _ _ N B _ _ _ _ 
3 | _ _ K _ _ _ _ _ 
2 | _ _ _ _ _ _ _ _ 
1 | _ _ _ _ _ _ _ B 
-------------------
  | A B C D E F G H 

Turn of: white
Succesful move
c3b3
8 | _ _ _ _ _ _ _ R 
7 | _ _ _ K _ _ _ R 
6 | P _ _ _ P _ P _ 
5 | P _ _ _ _ _ _ P 
4 | _ _ N B _ _ _ _ 
3 | _ K _ _ _ _ _ _ 
2 | _ _ _ _ _ _ _ _ 
1 | _ _ _ _ _ _ _ B 
-------------------
  | A B C D E F G H 

Turn of: black
Succesful move
d7e7
8 | _ _ _ _ _ _ _ R 
7 | _ _ _ _ K _ _ R 
6 | P _ _ _ P _ P _ 
5 | P _ _ _ _ _ _ P 
4 | _ _ N B _ _ _ _ 
3 | _ K _ _ _ _ _ _ 
2 | _ _ _ _ _ _ _ _ 
1 | _ _ _ _ _ _ _ B 
-------------------
  | A B C D E F G H 

We are playing as White
Move history:
h2h4
b8c6
b1c3
c6a5
c3b5
d7d6
d2d3
d6d5
a2a4
c7c6
e2e4
c6c5
e4e5
e8d7
b5d4
a5c4
d4f3
b7b5
f1e2
c4e3
a1a3
d8e8
e5e6
d7d6
a4a5
a7a6
a3a4
e3d1
e2f1
d6c6
c2c3
c6c7
a4b4
f7e6
f3h2
g8f6
b4e4
a8a7
g1e2
g7g6
h1g1
c7b7
c3c4
d1e3
h2g4
d5e4
f2f3
e3g2
f1g2
e6e5
g1f1
b5c4
d3e4
a7a8
g4h2
b7b8
c1d2
e8f7
e2c1
f7d5
g2h1
d5e4
f3e4
f6h5
c1e2
h5g3
h1g2
c4c3
f1f2
e7e6
f2f6
b8b7
f6f5
c5c4
e1f2
h7h5
f2e1
b7a7
d2e3
a7b8
e2c1
g3h1
g2f1
c3b2
f5f6
c8b7
e1d2
b8c7
e3f2
h1f2
f6f3
c7d6
f3g3
b7e4
g3g4
f8g7
d2e3
d6e7
e3d2
f2g4
d2d1
a8d8
c1d3
d8b8
d3e5
e4h1
d1c2
c4c3
f1e2
b8b7
c2d3
g7e5
h2f1
g4f6
d3c2
e7d6
e2c4
f6e4
c4e2
b7e7
e2h5
d6d7
f1g3
e5g3
h5f3
e4d2
c2c3
e7f7
h4h5
g3f2
c3b2
f7h7
f3h1
d2c4
b2c3
f2d4
c3b3
d7e7
8 | _ _ _ _ _ _ _ R 
7 | _ _ _ _ K _ _ R 
6 | P _ _ _ P _ P _ 
5 | P _ _ _ _ _ _ P 
4 | _ _ N B _ _ _ _ 
3 | _ K _ _ _ _ _ _ 
2 | _ _ _ _ _ _ _ _ 
1 | _ _ _ _ _ _ _ B 
-------------------
  | A B C D E F G H 

It is white's turn to play.
AI's move: b3b4
Move written: b3b4
[32;1m[Game] [0mPlayer's error code: 0
[32;1m[Game] [0mChecking move validity...
[32;1m[Board] [0mInitializing board...
[32;1m[Board] [0mLoading history file `championship/lizzie-iii-alabtros/history.csv`...
[32;1m[Board] [0mLoaded 138 move(s).
[32;1m[Board] [0mLoading move file `championship/lizzie-iii-alabtros/move.csv`...
[32;1m[Board] [0mWhite player is playing b3 to b4.
[32;1m[Board] [0m
[32;1m[Board] [0m    a b c d e f g h 
[32;1m[Board] [0m  -------------------
[32;1m[Board] [0m8 ||[7;1m [0m| |[7;1m [0m| |[7;1m [0m| |[7;1m [0m|[30;1mr[0m|| 8
[32;1m[Board] [0m  -------------------
[32;1m[Board] [0m7 || |[7;1m [0m| |[7;1m [0m|[30;1mK[0m|[7;1m [0m| |[30;1mr[0m|| 7
[32;1m[Board] [0m  -------------------
[32;1m[Board] [0m6 ||[30;1mp[0m| |[7;1m [0m| |[30;1mp[0m| |[30;1mp[0m| || 6
[32;1m[Board] [0m  -------------------
[32;1m[Board] [0m5 ||[0;1mp[0m|[7;1m [0m| |[7;1m [0m| |[7;1m [0m| |[0;1mp[0m|| 5
[32;1m[Board] [0m  -------------------
[32;1m[Board] [0m4 ||[7;1m [0m|[0;1mK[0m|[30;1mk[0m|[30;1mb[0m|[7;1m [0m| |[7;1m [0m| || 4
[32;1m[Board] [0m  -------------------
[32;1m[Board] [0m3 || |[7;1m [0m| |[7;1m [0m| |[7;1m [0m| |[7;1m [0m|| 3
[32;1m[Board] [0m  -------------------
[32;1m[Board] [0m2 ||[7;1m [0m| |[7;1m [0m| |[7;1m [0m| |[7;1m [0m| || 2
[32;1m[Board] [0m  -------------------
[32;1m[Board] [0m1 || |[7;1m [0m| |[7;1m [0m| |[7;1m [0m| |[0;1mb[0m|| 1
[32;1m[Board] [0m  -------------------
[32;1m[Board] [0m    a b c d e f g h
[32;1m[Board] [0m
[32;1m[Referee] [0mThis is the turn of the Black player...
8| . . . . . . . r 
7| . . . . k . . r 
6| p . . . p . p . 
5| P . . . . . . P 
4| . K n b . . . . 
3| . . . . . . . . 
2| . . . . . . . . 
1| . . . . . . . B 
-| A|B|C|D|E|F|G|H
e6e5
g6h5
g6g5
c4b2
c4d2
c4a3
c4e3
c4a5
c4e5
c4b6
c4d6
d4e5
d4f6
d4g7
d4h8
d4c5
d4b6
d4a7
d4g1
d4f2
d4e3
d4a1
d4b2
d4c3
h7h8
h7h5
h7f7
h7g7
e7d6
e7f6
e7d7
e7f7
e7d8
e7e8
e7f8
[32;1m[Game] [0mPlayer's error code: 0
[32;1m[Game] [0mChecking move validity...
[32;1m[Board] [0mInitializing board...
[32;1m[Board] [0mLoading history file `championship/lizzie-iii-alabtros/history.csv`...
[32;1m[Board] [0mLoaded 139 move(s).
[32;1m[Board] [0mLoading move file `championship/lizzie-iii-alabtros/move.csv`...
[32;1m[Board] [0mBlack player is playing h7 to h8.
[32;1m[Board] [0m[31;1m[ERROR][0m Move destination (h8) contains a player's piece :(
[32;1m[Referee] [0mInvalid move (code: -6) :(
[32;1m[Game] [0mBlack player has lost on illegal move.
