[32;1m[Board] [0mInitializing board...
[32;1m[Board] [0m
[32;1m[Board] [0m    a b c d e f g h 
[32;1m[Board] [0m  -------------------
[32;1m[Board] [0m8 ||[30;1mr[0m|[30;1mk[0m|[30;1mb[0m|[30;1mQ[0m|[30;1mK[0m|[30;1mb[0m|[30;1mk[0m|[30;1mr[0m|| 8
[32;1m[Board] [0m  -------------------
[32;1m[Board] [0m7 ||[30;1mp[0m|[30;1mp[0m|[30;1mp[0m|[30;1mp[0m|[30;1mp[0m|[30;1mp[0m|[30;1mp[0m|[30;1mp[0m|| 7
[32;1m[Board] [0m  -------------------
[32;1m[Board] [0m6 ||[7;1m [0m| |[7;1m [0m| |[7;1m [0m| |[7;1m [0m| || 6
[32;1m[Board] [0m  -------------------
[32;1m[Board] [0m5 || |[7;1m [0m| |[7;1m [0m| |[7;1m [0m| |[7;1m [0m|| 5
[32;1m[Board] [0m  -------------------
[32;1m[Board] [0m4 ||[7;1m [0m| |[7;1m [0m| |[7;1m [0m| |[7;1m [0m| || 4
[32;1m[Board] [0m  -------------------
[32;1m[Board] [0m3 || |[7;1m [0m| |[7;1m [0m| |[7;1m [0m| |[7;1m [0m|| 3
[32;1m[Board] [0m  -------------------
[32;1m[Board] [0m2 ||[0;1mp[0m|[0;1mp[0m|[0;1mp[0m|[0;1mp[0m|[0;1mp[0m|[0;1mp[0m|[0;1mp[0m|[0;1mp[0m|| 2
[32;1m[Board] [0m  -------------------
[32;1m[Board] [0m1 ||[0;1mr[0m|[0;1mk[0m|[0;1mb[0m|[0;1mQ[0m|[0;1mK[0m|[0;1mb[0m|[0;1mk[0m|[0;1mr[0m|| 1
[32;1m[Board] [0m  -------------------
[32;1m[Board] [0m    a b c d e f g h
[32;1m[Board] [0m
[32;1m[Referee] [0mThis is the turn of the White player...
Input file: championship/lizzie-iii-kean-chess-engine/history.csv
Output file: championship/lizzie-iii-kean-chess-engine/move.csv
We are playing as White
8 | [1;31mR[0m [1;31mN[0m [1;31mB[0m [1;31mQ[0m [1;31mK[0m [1;31mB[0m [1;31mN[0m [1;31mR[0m 
7 | [1;31mP[0m [1;31mP[0m [1;31mP[0m [1;31mP[0m [1;31mP[0m [1;31mP[0m [1;31mP[0m [1;31mP[0m 
6 | [1;30m_[0m [1;30m_[0m [1;30m_[0m [1;30m_[0m [1;30m_[0m [1;30m_[0m [1;30m_[0m [1;30m_[0m 
5 | [1;30m_[0m [1;30m_[0m [1;30m_[0m [1;30m_[0m [1;30m_[0m [1;30m_[0m [1;30m_[0m [1;30m_[0m 
4 | [1;30m_[0m [1;30m_[0m [1;30m_[0m [1;30m_[0m [1;30m_[0m [1;30m_[0m [1;30m_[0m [1;30m_[0m 
3 | [1;30m_[0m [1;30m_[0m [1;30m_[0m [1;30m_[0m [1;30m_[0m [1;30m_[0m [1;30m_[0m [1;30m_[0m 
2 | [1;32mP[0m [1;32mP[0m [1;32mP[0m [1;32mP[0m [1;32mP[0m [1;32mP[0m [1;32mP[0m [1;32mP[0m 
1 | [1;32mR[0m [1;32mN[0m [1;32mB[0m [1;32mQ[0m [1;32mK[0m [1;32mB[0m [1;32mN[0m [1;32mR[0m 
-------------------
  | A B C D E F G H 

It is white's turn to play.
Times this board has been seen: 0
Best move: b1c3
Evaluation: -10
[32;1m[Game] [0mPlayer's error code: 0
[32;1m[Game] [0mChecking move validity...
[32;1m[Board] [0mInitializing board...
[32;1m[Board] [0mLoading history file `championship/lizzie-iii-kean-chess-engine/history.csv`...
[32;1m[Board] [0mLoaded 0 move(s).
[32;1m[Board] [0mLoading move file `championship/lizzie-iii-kean-chess-engine/move.csv`...
[32;1m[Board] [0mWhite player is playing b1 to c3.
[32;1m[Board] [0m
[32;1m[Board] [0m    a b c d e f g h 
[32;1m[Board] [0m  -------------------
[32;1m[Board] [0m8 ||[30;1mr[0m|[30;1mk[0m|[30;1mb[0m|[30;1mQ[0m|[30;1mK[0m|[30;1mb[0m|[30;1mk[0m|[30;1mr[0m|| 8
[32;1m[Board] [0m  -------------------
[32;1m[Board] [0m7 ||[30;1mp[0m|[30;1mp[0m|[30;1mp[0m|[30;1mp[0m|[30;1mp[0m|[30;1mp[0m|[30;1mp[0m|[30;1mp[0m|| 7
[32;1m[Board] [0m  -------------------
[32;1m[Board] [0m6 ||[7;1m [0m| |[7;1m [0m| |[7;1m [0m| |[7;1m [0m| || 6
[32;1m[Board] [0m  -------------------
[32;1m[Board] [0m5 || |[7;1m [0m| |[7;1m [0m| |[7;1m [0m| |[7;1m [0m|| 5
[32;1m[Board] [0m  -------------------
[32;1m[Board] [0m4 ||[7;1m [0m| |[7;1m [0m| |[7;1m [0m| |[7;1m [0m| || 4
[32;1m[Board] [0m  -------------------
[32;1m[Board] [0m3 || |[7;1m [0m|[0;1mk[0m|[7;1m [0m| |[7;1m [0m| |[7;1m [0m|| 3
[32;1m[Board] [0m  -------------------
[32;1m[Board] [0m2 ||[0;1mp[0m|[0;1mp[0m|[0;1mp[0m|[0;1mp[0m|[0;1mp[0m|[0;1mp[0m|[0;1mp[0m|[0;1mp[0m|| 2
[32;1m[Board] [0m  -------------------
[32;1m[Board] [0m1 ||[0;1mr[0m|[7;1m [0m|[0;1mb[0m|[0;1mQ[0m|[0;1mK[0m|[0;1mb[0m|[0;1mk[0m|[0;1mr[0m|| 1
[32;1m[Board] [0m  -------------------
[32;1m[Board] [0m    a b c d e f g h
[32;1m[Board] [0m
[32;1m[Referee] [0mThis is the turn of the Black player...
b1c3
   â”Œâ”€â”€â”€â”¬â”€â”€â”€â”¬â”€â”€â”€â”¬â”€â”€â”€â”¬â”€â”€â”€â”¬â”€â”€â”€â”¬â”€â”€â”€â”¬â”€â”€â”€â”
 8 â”‚ â™– â”‚ â™˜ â”‚ â™— â”‚ â™• â”‚ â™” â”‚ â™— â”‚ â™˜ â”‚ â™– â”‚
   â”œâ”€â”€â”€â”¼â”€â”€â”€â”¼â”€â”€â”€â”¼â”€â”€â”€â”¼â”€â”€â”€â”¼â”€â”€â”€â”¼â”€â”€â”€â”¼â”€â”€â”€â”¤
 7 â”‚ â™™ â”‚ â™™ â”‚ â™™ â”‚ â™™ â”‚ â™™ â”‚ â™™ â”‚ â™™ â”‚ â™™ â”‚
   â”œâ”€â”€â”€â”¼â”€â”€â”€â”¼â”€â”€â”€â”¼â”€â”€â”€â”¼â”€â”€â”€â”¼â”€â”€â”€â”¼â”€â”€â”€â”¼â”€â”€â”€â”¤
 6 â”‚   â”‚   â”‚   â”‚   â”‚   â”‚   â”‚   â”‚   â”‚
   â”œâ”€â”€â”€â”¼â”€â”€â”€â”¼â”€â”€â”€â”¼â”€â”€â”€â”¼â”€â”€â”€â”¼â”€â”€â”€â”¼â”€â”€â”€â”¼â”€â”€â”€â”¤
 5 â”‚   â”‚   â”‚   â”‚   â”‚   â”‚   â”‚   â”‚   â”‚
   â”œâ”€â”€â”€â”¼â”€â”€â”€â”¼â”€â”€â”€â”¼â”€â”€â”€â”¼â”€â”€â”€â”¼â”€â”€â”€â”¼â”€â”€â”€â”¼â”€â”€â”€â”¤
 4 â”‚   â”‚   â”‚   â”‚   â”‚   â”‚   â”‚   â”‚   â”‚
   â”œâ”€â”€â”€â”¼â”€â”€â”€â”¼â”€â”€â”€â”¼â”€â”€â”€â”¼â”€â”€â”€â”¼â”€â”€â”€â”¼â”€â”€â”€â”¼â”€â”€â”€â”¤
 3 â”‚   â”‚   â”‚ â™ â”‚   â”‚   â”‚   â”‚   â”‚   â”‚
   â”œâ”€â”€â”€â”¼â”€â”€â”€â”¼â”€â”€â”€â”¼â”€â”€â”€â”¼â”€â”€â”€â”¼â”€â”€â”€â”¼â”€â”€â”€â”¼â”€â”€â”€â”¤
 2 â”‚ â™Ÿ â”‚ â™Ÿ â”‚ â™Ÿ â”‚ â™Ÿ â”‚ â™Ÿ â”‚ â™Ÿ â”‚ â™Ÿ â”‚ â™Ÿ â”‚
   â”œâ”€â”€â”€â”¼â”€â”€â”€â”¼â”€â”€â”€â”¼â”€â”€â”€â”¼â”€â”€â”€â”¼â”€â”€â”€â”¼â”€â”€â”€â”¼â”€â”€â”€â”¤
 1 â”‚ â™œ â”‚   â”‚ â™ â”‚ â™› â”‚ â™š â”‚ â™ â”‚ â™ â”‚ â™œ â”‚
   â””â”€â”€â”€â”´â”€â”€â”€â”´â”€â”€â”€â”´â”€â”€â”€â”´â”€â”€â”€â”´â”€â”€â”€â”´â”€â”€â”€â”´â”€â”€â”€â”˜
     a   b   c   d   e   f   g   h
Error: Could not open file: "/data/julien/Pro/git/teaching/x/2024/Resources/openingBook.txt"
Depth: 1 Best move found: f7f6 Evaluation: -373 Nodes searched: 85 (Alpha Beta 4, Quiescence 81)
Depth: 2 Best move found: f7f6 Evaluation: -455 Nodes searched: 144 (Alpha Beta 22, Quiescence 122)
Depth: 3 Best move found: f7f6 Evaluation: -392 Nodes searched: 1064 (Alpha Beta 178, Quiescence 886)
Depth: 4 Best move found: f7f6 Evaluation: -451 Nodes searched: 4040 (Alpha Beta 858, Quiescence 3182)
Depth: 5 Best move found: f7f6 Evaluation: -432 Nodes searched: 17151 (Alpha Beta 5429, Quiescence 11722)
Depth: 6 Best move found: b7b6 Evaluation: -461 Nodes searched: 83354 (Alpha Beta 22308, Quiescence 61046)
Time Elapsed: 9904ms
[32;1m[Game] [0mPlayer's error code: 0
[32;1m[Game] [0mChecking move validity...
[32;1m[Board] [0mInitializing board...
[32;1m[Board] [0mLoading history file `championship/lizzie-iii-kean-chess-engine/history.csv`...
[32;1m[Board] [0mLoaded 1 move(s).
[32;1m[Board] [0mLoading move file `championship/lizzie-iii-kean-chess-engine/move.csv`...
[32;1m[Board] [0mBlack player is playing b7 to b6.
[32;1m[Board] [0m
[32;1m[Board] [0m    a b c d e f g h 
[32;1m[Board] [0m  -------------------
[32;1m[Board] [0m8 ||[30;1mr[0m|[30;1mk[0m|[30;1mb[0m|[30;1mQ[0m|[30;1mK[0m|[30;1mb[0m|[30;1mk[0m|[30;1mr[0m|| 8
[32;1m[Board] [0m  -------------------
[32;1m[Board] [0m7 ||[30;1mp[0m|[7;1m [0m|[30;1mp[0m|[30;1mp[0m|[30;1mp[0m|[30;1mp[0m|[30;1mp[0m|[30;1mp[0m|| 7
[32;1m[Board] [0m  -------------------
[32;1m[Board] [0m6 ||[7;1m [0m|[30;1mp[0m|[7;1m [0m| |[7;1m [0m| |[7;1m [0m| || 6
[32;1m[Board] [0m  -------------------
[32;1m[Board] [0m5 || |[7;1m [0m| |[7;1m [0m| |[7;1m [0m| |[7;1m [0m|| 5
[32;1m[Board] [0m  -------------------
[32;1m[Board] [0m4 ||[7;1m [0m| |[7;1m [0m| |[7;1m [0m| |[7;1m [0m| || 4
[32;1m[Board] [0m  -------------------
[32;1m[Board] [0m3 || |[7;1m [0m|[0;1mk[0m|[7;1m [0m| |[7;1m [0m| |[7;1m [0m|| 3
[32;1m[Board] [0m  -------------------
[32;1m[Board] [0m2 ||[0;1mp[0m|[0;1mp[0m|[0;1mp[0m|[0;1mp[0m|[0;1mp[0m|[0;1mp[0m|[0;1mp[0m|[0;1mp[0m|| 2
[32;1m[Board] [0m  -------------------
[32;1m[Board] [0m1 ||[0;1mr[0m|[7;1m [0m|[0;1mb[0m|[0;1mQ[0m|[0;1mK[0m|[0;1mb[0m|[0;1mk[0m|[0;1mr[0m|| 1
[32;1m[Board] [0m  -------------------
[32;1m[Board] [0m    a b c d e f g h
[32;1m[Board] [0m
[32;1m[Referee] [0mThis is the turn of the White player...
Input file: championship/lizzie-iii-kean-chess-engine/history.csv
Output file: championship/lizzie-iii-kean-chess-engine/move.csv
We are playing as White
8 | [1;31mR[0m [1;31mN[0m [1;31mB[0m [1;31mQ[0m [1;31mK[0m [1;31mB[0m [1;31mN[0m [1;31mR[0m 
7 | [1;31mP[0m [1;30m_[0m [1;31mP[0m [1;31mP[0m [1;31mP[0m [1;31mP[0m [1;31mP[0m [1;31mP[0m 
6 | [1;30m_[0m [1;31mP[0m [1;30m_[0m [1;30m_[0m [1;30m_[0m [1;30m_[0m [1;30m_[0m [1;30m_[0m 
5 | [1;30m_[0m [1;30m_[0m [1;30m_[0m [1;30m_[0m [1;30m_[0m [1;30m_[0m [1;30m_[0m [1;30m_[0m 
4 | [1;30m_[0m [1;30m_[0m [1;30m_[0m [1;30m_[0m [1;30m_[0m [1;30m_[0m [1;30m_[0m [1;30m_[0m 
3 | [1;30m_[0m [1;30m_[0m [1;32mN[0m [1;30m_[0m [1;30m_[0m [1;30m_[0m [1;30m_[0m [1;30m_[0m 
2 | [1;32mP[0m [1;32mP[0m [1;32mP[0m [1;32mP[0m [1;32mP[0m [1;32mP[0m [1;32mP[0m [1;32mP[0m 
1 | [1;32mR[0m [1;30m_[0m [1;32mB[0m [1;32mQ[0m [1;32mK[0m [1;32mB[0m [1;32mN[0m [1;32mR[0m 
-------------------
  | A B C D E F G H 

It is white's turn to play.
Times this board has been seen: 0
Best move: g1f3
Evaluation: 35
[32;1m[Game] [0mPlayer's error code: 0
[32;1m[Game] [0mChecking move validity...
[32;1m[Board] [0mInitializing board...
[32;1m[Board] [0mLoading history file `championship/lizzie-iii-kean-chess-engine/history.csv`...
[32;1m[Board] [0mLoaded 2 move(s).
[32;1m[Board] [0mLoading move file `championship/lizzie-iii-kean-chess-engine/move.csv`...
[32;1m[Board] [0mWhite player is playing g1 to f3.
[32;1m[Board] [0m
[32;1m[Board] [0m    a b c d e f g h 
[32;1m[Board] [0m  -------------------
[32;1m[Board] [0m8 ||[30;1mr[0m|[30;1mk[0m|[30;1mb[0m|[30;1mQ[0m|[30;1mK[0m|[30;1mb[0m|[30;1mk[0m|[30;1mr[0m|| 8
[32;1m[Board] [0m  -------------------
[32;1m[Board] [0m7 ||[30;1mp[0m|[7;1m [0m|[30;1mp[0m|[30;1mp[0m|[30;1mp[0m|[30;1mp[0m|[30;1mp[0m|[30;1mp[0m|| 7
[32;1m[Board] [0m  -------------------
[32;1m[Board] [0m6 ||[7;1m [0m|[30;1mp[0m|[7;1m [0m| |[7;1m [0m| |[7;1m [0m| || 6
[32;1m[Board] [0m  -------------------
[32;1m[Board] [0m5 || |[7;1m [0m| |[7;1m [0m| |[7;1m [0m| |[7;1m [0m|| 5
[32;1m[Board] [0m  -------------------
[32;1m[Board] [0m4 ||[7;1m [0m| |[7;1m [0m| |[7;1m [0m| |[7;1m [0m| || 4
[32;1m[Board] [0m  -------------------
[32;1m[Board] [0m3 || |[7;1m [0m|[0;1mk[0m|[7;1m [0m| |[0;1mk[0m| |[7;1m [0m|| 3
[32;1m[Board] [0m  -------------------
[32;1m[Board] [0m2 ||[0;1mp[0m|[0;1mp[0m|[0;1mp[0m|[0;1mp[0m|[0;1mp[0m|[0;1mp[0m|[0;1mp[0m|[0;1mp[0m|| 2
[32;1m[Board] [0m  -------------------
[32;1m[Board] [0m1 ||[0;1mr[0m|[7;1m [0m|[0;1mb[0m|[0;1mQ[0m|[0;1mK[0m|[0;1mb[0m| |[0;1mr[0m|| 1
[32;1m[Board] [0m  -------------------
[32;1m[Board] [0m    a b c d e f g h
[32;1m[Board] [0m
[32;1m[Referee] [0mThis is the turn of the Black player...
b1c3
   â”Œâ”€â”€â”€â”¬â”€â”€â”€â”¬â”€â”€â”€â”¬â”€â”€â”€â”¬â”€â”€â”€â”¬â”€â”€â”€â”¬â”€â”€â”€â”¬â”€â”€â”€â”
 8 â”‚ â™– â”‚ â™˜ â”‚ â™— â”‚ â™• â”‚ â™” â”‚ â™— â”‚ â™˜ â”‚ â™– â”‚
   â”œâ”€â”€â”€â”¼â”€â”€â”€â”¼â”€â”€â”€â”¼â”€â”€â”€â”¼â”€â”€â”€â”¼â”€â”€â”€â”¼â”€â”€â”€â”¼â”€â”€â”€â”¤
 7 â”‚ â™™ â”‚ â™™ â”‚ â™™ â”‚ â™™ â”‚ â™™ â”‚ â™™ â”‚ â™™ â”‚ â™™ â”‚
   â”œâ”€â”€â”€â”¼â”€â”€â”€â”¼â”€â”€â”€â”¼â”€â”€â”€â”¼â”€â”€â”€â”¼â”€â”€â”€â”¼â”€â”€â”€â”¼â”€â”€â”€â”¤
 6 â”‚   â”‚   â”‚   â”‚   â”‚   â”‚   â”‚   â”‚   â”‚
   â”œâ”€â”€â”€â”¼â”€â”€â”€â”¼â”€â”€â”€â”¼â”€â”€â”€â”¼â”€â”€â”€â”¼â”€â”€â”€â”¼â”€â”€â”€â”¼â”€â”€â”€â”¤
 5 â”‚   â”‚   â”‚   â”‚   â”‚   â”‚   â”‚   â”‚   â”‚
   â”œâ”€â”€â”€â”¼â”€â”€â”€â”¼â”€â”€â”€â”¼â”€â”€â”€â”¼â”€â”€â”€â”¼â”€â”€â”€â”¼â”€â”€â”€â”¼â”€â”€â”€â”¤
 4 â”‚   â”‚   â”‚   â”‚   â”‚   â”‚   â”‚   â”‚   â”‚
   â”œâ”€â”€â”€â”¼â”€â”€â”€â”¼â”€â”€â”€â”¼â”€â”€â”€â”¼â”€â”€â”€â”¼â”€â”€â”€â”¼â”€â”€â”€â”¼â”€â”€â”€â”¤
 3 â”‚   â”‚   â”‚ â™ â”‚   â”‚   â”‚   â”‚   â”‚   â”‚
   â”œâ”€â”€â”€â”¼â”€â”€â”€â”¼â”€â”€â”€â”¼â”€â”€â”€â”¼â”€â”€â”€â”¼â”€â”€â”€â”¼â”€â”€â”€â”¼â”€â”€â”€â”¤
 2 â”‚ â™Ÿ â”‚ â™Ÿ â”‚ â™Ÿ â”‚ â™Ÿ â”‚ â™Ÿ â”‚ â™Ÿ â”‚ â™Ÿ â”‚ â™Ÿ â”‚
   â”œâ”€â”€â”€â”¼â”€â”€â”€â”¼â”€â”€â”€â”¼â”€â”€â”€â”¼â”€â”€â”€â”¼â”€â”€â”€â”¼â”€â”€â”€â”¼â”€â”€â”€â”¤
 1 â”‚ â™œ â”‚   â”‚ â™ â”‚ â™› â”‚ â™š â”‚ â™ â”‚ â™ â”‚ â™œ â”‚
   â””â”€â”€â”€â”´â”€â”€â”€â”´â”€â”€â”€â”´â”€â”€â”€â”´â”€â”€â”€â”´â”€â”€â”€â”´â”€â”€â”€â”´â”€â”€â”€â”˜
     a   b   c   d   e   f   g   h
b7b6
   â”Œâ”€â”€â”€â”¬â”€â”€â”€â”¬â”€â”€â”€â”¬â”€â”€â”€â”¬â”€â”€â”€â”¬â”€â”€â”€â”¬â”€â”€â”€â”¬â”€â”€â”€â”
 8 â”‚ â™– â”‚ â™˜ â”‚ â™— â”‚ â™• â”‚ â™” â”‚ â™— â”‚ â™˜ â”‚ â™– â”‚
   â”œâ”€â”€â”€â”¼â”€â”€â”€â”¼â”€â”€â”€â”¼â”€â”€â”€â”¼â”€â”€â”€â”¼â”€â”€â”€â”¼â”€â”€â”€â”¼â”€â”€â”€â”¤
 7 â”‚ â™™ â”‚   â”‚ â™™ â”‚ â™™ â”‚ â™™ â”‚ â™™ â”‚ â™™ â”‚ â™™ â”‚
   â”œâ”€â”€â”€â”¼â”€â”€â”€â”¼â”€â”€â”€â”¼â”€â”€â”€â”¼â”€â”€â”€â”¼â”€â”€â”€â”¼â”€â”€â”€â”¼â”€â”€â”€â”¤
 6 â”‚   â”‚ â™™ â”‚   â”‚   â”‚   â”‚   â”‚   â”‚   â”‚
   â”œâ”€â”€â”€â”¼â”€â”€â”€â”¼â”€â”€â”€â”¼â”€â”€â”€â”¼â”€â”€â”€â”¼â”€â”€â”€â”¼â”€â”€â”€â”¼â”€â”€â”€â”¤
 5 â”‚   â”‚   â”‚   â”‚   â”‚   â”‚   â”‚   â”‚   â”‚
   â”œâ”€â”€â”€â”¼â”€â”€â”€â”¼â”€â”€â”€â”¼â”€â”€â”€â”¼â”€â”€â”€â”¼â”€â”€â”€â”¼â”€â”€â”€â”¼â”€â”€â”€â”¤
 4 â”‚   â”‚   â”‚   â”‚   â”‚   â”‚   â”‚   â”‚   â”‚
   â”œâ”€â”€â”€â”¼â”€â”€â”€â”¼â”€â”€â”€â”¼â”€â”€â”€â”¼â”€â”€â”€â”¼â”€â”€â”€â”¼â”€â”€â”€â”¼â”€â”€â”€â”¤
 3 â”‚   â”‚   â”‚ â™ â”‚   â”‚   â”‚   â”‚   â”‚   â”‚
   â”œâ”€â”€â”€â”¼â”€â”€â”€â”¼â”€â”€â”€â”¼â”€â”€â”€â”¼â”€â”€â”€â”¼â”€â”€â”€â”¼â”€â”€â”€â”¼â”€â”€â”€â”¤
 2 â”‚ â™Ÿ â”‚ â™Ÿ â”‚ â™Ÿ â”‚ â™Ÿ â”‚ â™Ÿ â”‚ â™Ÿ â”‚ â™Ÿ â”‚ â™Ÿ â”‚
   â”œâ”€â”€â”€â”¼â”€â”€â”€â”¼â”€â”€â”€â”¼â”€â”€â”€â”¼â”€â”€â”€â”¼â”€â”€â”€â”¼â”€â”€â”€â”¼â”€â”€â”€â”¤
 1 â”‚ â™œ â”‚   â”‚ â™ â”‚ â™› â”‚ â™š â”‚ â™ â”‚ â™ â”‚ â™œ â”‚
   â””â”€â”€â”€â”´â”€â”€â”€â”´â”€â”€â”€â”´â”€â”€â”€â”´â”€â”€â”€â”´â”€â”€â”€â”´â”€â”€â”€â”´â”€â”€â”€â”˜
     a   b   c   d   e   f   g   h
g1f3
   â”Œâ”€â”€â”€â”¬â”€â”€â”€â”¬â”€â”€â”€â”¬â”€â”€â”€â”¬â”€â”€â”€â”¬â”€â”€â”€â”¬â”€â”€â”€â”¬â”€â”€â”€â”
 8 â”‚ â™– â”‚ â™˜ â”‚ â™— â”‚ â™• â”‚ â™” â”‚ â™— â”‚ â™˜ â”‚ â™– â”‚
   â”œâ”€â”€â”€â”¼â”€â”€â”€â”¼â”€â”€â”€â”¼â”€â”€â”€â”¼â”€â”€â”€â”¼â”€â”€â”€â”¼â”€â”€â”€â”¼â”€â”€â”€â”¤
 7 â”‚ â™™ â”‚   â”‚ â™™ â”‚ â™™ â”‚ â™™ â”‚ â™™ â”‚ â™™ â”‚ â™™ â”‚
   â”œâ”€â”€â”€â”¼â”€â”€â”€â”¼â”€â”€â”€â”¼â”€â”€â”€â”¼â”€â”€â”€â”¼â”€â”€â”€â”¼â”€â”€â”€â”¼â”€â”€â”€â”¤
 6 â”‚   â”‚ â™™ â”‚   â”‚   â”‚   â”‚   â”‚   â”‚   â”‚
   â”œâ”€â”€â”€â”¼â”€â”€â”€â”¼â”€â”€â”€â”¼â”€â”€â”€â”¼â”€â”€â”€â”¼â”€â”€â”€â”¼â”€â”€â”€â”¼â”€â”€â”€â”¤
 5 â”‚   â”‚   â”‚   â”‚   â”‚   â”‚   â”‚   â”‚   â”‚
   â”œâ”€â”€â”€â”¼â”€â”€â”€â”¼â”€â”€â”€â”¼â”€â”€â”€â”¼â”€â”€â”€â”¼â”€â”€â”€â”¼â”€â”€â”€â”¼â”€â”€â”€â”¤
 4 â”‚   â”‚   â”‚   â”‚   â”‚   â”‚   â”‚   â”‚   â”‚
   â”œâ”€â”€â”€â”¼â”€â”€â”€â”¼â”€â”€â”€â”¼â”€â”€â”€â”¼â”€â”€â”€â”¼â”€â”€â”€â”¼â”€â”€â”€â”¼â”€â”€â”€â”¤
 3 â”‚   â”‚   â”‚ â™ â”‚   â”‚   â”‚ â™ â”‚   â”‚   â”‚
   â”œâ”€â”€â”€â”¼â”€â”€â”€â”¼â”€â”€â”€â”¼â”€â”€â”€â”¼â”€â”€â”€â”¼â”€â”€â”€â”¼â”€â”€â”€â”¼â”€â”€â”€â”¤
 2 â”‚ â™Ÿ â”‚ â™Ÿ â”‚ â™Ÿ â”‚ â™Ÿ â”‚ â™Ÿ â”‚ â™Ÿ â”‚ â™Ÿ â”‚ â™Ÿ â”‚
   â”œâ”€â”€â”€â”¼â”€â”€â”€â”¼â”€â”€â”€â”¼â”€â”€â”€â”¼â”€â”€â”€â”¼â”€â”€â”€â”¼â”€â”€â”€â”¼â”€â”€â”€â”¤
 1 â”‚ â™œ â”‚   â”‚ â™ â”‚ â™› â”‚ â™š â”‚ â™ â”‚   â”‚ â™œ â”‚
   â””â”€â”€â”€â”´â”€â”€â”€â”´â”€â”€â”€â”´â”€â”€â”€â”´â”€â”€â”€â”´â”€â”€â”€â”´â”€â”€â”€â”´â”€â”€â”€â”˜
     a   b   c   d   e   f   g   h
Error: Could not open file: "/data/julien/Pro/git/teaching/x/2024/Resources/openingBook.txt"
Depth: 1 Best move found: f7f6 Evaluation: -342 Nodes searched: 88 (Alpha Beta 4, Quiescence 84)
Depth: 2 Best move found: f7f6 Evaluation: -424 Nodes searched: 153 (Alpha Beta 22, Quiescence 131)
Depth: 3 Best move found: f7f6 Evaluation: -386 Nodes searched: 674 (Alpha Beta 83, Quiescence 591)
Depth: 4 Best move found: f7f6 Evaluation: -443 Nodes searched: 3997 (Alpha Beta 831, Quiescence 3166)
Depth: 5 Best move found: f7f6 Evaluation: -418 Nodes searched: 30816 (Alpha Beta 8515, Quiescence 22301)
Time Elapsed: 9904ms
[32;1m[Game] [0mPlayer's error code: 0
[32;1m[Game] [0mChecking move validity...
[32;1m[Board] [0mInitializing board...
[32;1m[Board] [0mLoading history file `championship/lizzie-iii-kean-chess-engine/history.csv`...
[32;1m[Board] [0mLoaded 3 move(s).
[32;1m[Board] [0mLoading move file `championship/lizzie-iii-kean-chess-engine/move.csv`...
[32;1m[Board] [0mBlack player is playing f7 to f6.
[32;1m[Board] [0m
[32;1m[Board] [0m    a b c d e f g h 
[32;1m[Board] [0m  -------------------
[32;1m[Board] [0m8 ||[30;1mr[0m|[30;1mk[0m|[30;1mb[0m|[30;1mQ[0m|[30;1mK[0m|[30;1mb[0m|[30;1mk[0m|[30;1mr[0m|| 8
[32;1m[Board] [0m  -------------------
[32;1m[Board] [0m7 ||[30;1mp[0m|[7;1m [0m|[30;1mp[0m|[30;1mp[0m|[30;1mp[0m|[7;1m [0m|[30;1mp[0m|[30;1mp[0m|| 7
[32;1m[Board] [0m  -------------------
[32;1m[Board] [0m6 ||[7;1m [0m|[30;1mp[0m|[7;1m [0m| |[7;1m [0m|[30;1mp[0m|[7;1m [0m| || 6
[32;1m[Board] [0m  -------------------
[32;1m[Board] [0m5 || |[7;1m [0m| |[7;1m [0m| |[7;1m [0m| |[7;1m [0m|| 5
[32;1m[Board] [0m  -------------------
[32;1m[Board] [0m4 ||[7;1m [0m| |[7;1m [0m| |[7;1m [0m| |[7;1m [0m| || 4
[32;1m[Board] [0m  -------------------
[32;1m[Board] [0m3 || |[7;1m [0m|[0;1mk[0m|[7;1m [0m| |[0;1mk[0m| |[7;1m [0m|| 3
[32;1m[Board] [0m  -------------------
[32;1m[Board] [0m2 ||[0;1mp[0m|[0;1mp[0m|[0;1mp[0m|[0;1mp[0m|[0;1mp[0m|[0;1mp[0m|[0;1mp[0m|[0;1mp[0m|| 2
[32;1m[Board] [0m  -------------------
[32;1m[Board] [0m1 ||[0;1mr[0m|[7;1m [0m|[0;1mb[0m|[0;1mQ[0m|[0;1mK[0m|[0;1mb[0m| |[0;1mr[0m|| 1
[32;1m[Board] [0m  -------------------
[32;1m[Board] [0m    a b c d e f g h
[32;1m[Board] [0m
[32;1m[Referee] [0mThis is the turn of the White player...
Input file: championship/lizzie-iii-kean-chess-engine/history.csv
Output file: championship/lizzie-iii-kean-chess-engine/move.csv
We are playing as White
8 | [1;31mR[0m [1;31mN[0m [1;31mB[0m [1;31mQ[0m [1;31mK[0m [1;31mB[0m [1;31mN[0m [1;31mR[0m 
7 | [1;31mP[0m [1;30m_[0m [1;31mP[0m [1;31mP[0m [1;31mP[0m [1;30m_[0m [1;31mP[0m [1;31mP[0m 
6 | [1;30m_[0m [1;31mP[0m [1;30m_[0m [1;30m_[0m [1;30m_[0m [1;31mP[0m [1;30m_[0m [1;30m_[0m 
5 | [1;30m_[0m [1;30m_[0m [1;30m_[0m [1;30m_[0m [1;30m_[0m [1;30m_[0m [1;30m_[0m [1;30m_[0m 
4 | [1;30m_[0m [1;30m_[0m [1;30m_[0m [1;30m_[0m [1;30m_[0m [1;30m_[0m [1;30m_[0m [1;30m_[0m 
3 | [1;30m_[0m [1;30m_[0m [1;32mN[0m [1;30m_[0m [1;30m_[0m [1;32mN[0m [1;30m_[0m [1;30m_[0m 
2 | [1;32mP[0m [1;32mP[0m [1;32mP[0m [1;32mP[0m [1;32mP[0m [1;32mP[0m [1;32mP[0m [1;32mP[0m 
1 | [1;32mR[0m [1;30m_[0m [1;32mB[0m [1;32mQ[0m [1;32mK[0m [1;32mB[0m [1;30m_[0m [1;32mR[0m 
-------------------
  | A B C D E F G H 

It is white's turn to play.
Times this board has been seen: 0
Best move: e2e4
Evaluation: 95
[32;1m[Game] [0mPlayer's error code: 0
[32;1m[Game] [0mChecking move validity...
[32;1m[Board] [0mInitializing board...
[32;1m[Board] [0mLoading history file `championship/lizzie-iii-kean-chess-engine/history.csv`...
[32;1m[Board] [0mLoaded 4 move(s).
[32;1m[Board] [0mLoading move file `championship/lizzie-iii-kean-chess-engine/move.csv`...
[32;1m[Board] [0mWhite player is playing e2 to e4.
[32;1m[Board] [0m
[32;1m[Board] [0m    a b c d e f g h 
[32;1m[Board] [0m  -------------------
[32;1m[Board] [0m8 ||[30;1mr[0m|[30;1mk[0m|[30;1mb[0m|[30;1mQ[0m|[30;1mK[0m|[30;1mb[0m|[30;1mk[0m|[30;1mr[0m|| 8
[32;1m[Board] [0m  -------------------
[32;1m[Board] [0m7 ||[30;1mp[0m|[7;1m [0m|[30;1mp[0m|[30;1mp[0m|[30;1mp[0m|[7;1m [0m|[30;1mp[0m|[30;1mp[0m|| 7
[32;1m[Board] [0m  -------------------
[32;1m[Board] [0m6 ||[7;1m [0m|[30;1mp[0m|[7;1m [0m| |[7;1m [0m|[30;1mp[0m|[7;1m [0m| || 6
[32;1m[Board] [0m  -------------------
[32;1m[Board] [0m5 || |[7;1m [0m| |[7;1m [0m| |[7;1m [0m| |[7;1m [0m|| 5
[32;1m[Board] [0m  -------------------
[32;1m[Board] [0m4 ||[7;1m [0m| |[7;1m [0m| |[0;1mp[0m| |[7;1m [0m| || 4
[32;1m[Board] [0m  -------------------
[32;1m[Board] [0m3 || |[7;1m [0m|[0;1mk[0m|[7;1m [0m| |[0;1mk[0m| |[7;1m [0m|| 3
[32;1m[Board] [0m  -------------------
[32;1m[Board] [0m2 ||[0;1mp[0m|[0;1mp[0m|[0;1mp[0m|[0;1mp[0m|[7;1m [0m|[0;1mp[0m|[0;1mp[0m|[0;1mp[0m|| 2
[32;1m[Board] [0m  -------------------
[32;1m[Board] [0m1 ||[0;1mr[0m|[7;1m [0m|[0;1mb[0m|[0;1mQ[0m|[0;1mK[0m|[0;1mb[0m| |[0;1mr[0m|| 1
[32;1m[Board] [0m  -------------------
[32;1m[Board] [0m    a b c d e f g h
[32;1m[Board] [0m
[32;1m[Referee] [0mThis is the turn of the Black player...
b1c3
   â”Œâ”€â”€â”€â”¬â”€â”€â”€â”¬â”€â”€â”€â”¬â”€â”€â”€â”¬â”€â”€â”€â”¬â”€â”€â”€â”¬â”€â”€â”€â”¬â”€â”€â”€â”
 8 â”‚ â™– â”‚ â™˜ â”‚ â™— â”‚ â™• â”‚ â™” â”‚ â™— â”‚ â™˜ â”‚ â™– â”‚
   â”œâ”€â”€â”€â”¼â”€â”€â”€â”¼â”€â”€â”€â”¼â”€â”€â”€â”¼â”€â”€â”€â”¼â”€â”€â”€â”¼â”€â”€â”€â”¼â”€â”€â”€â”¤
 7 â”‚ â™™ â”‚ â™™ â”‚ â™™ â”‚ â™™ â”‚ â™™ â”‚ â™™ â”‚ â™™ â”‚ â™™ â”‚
   â”œâ”€â”€â”€â”¼â”€â”€â”€â”¼â”€â”€â”€â”¼â”€â”€â”€â”¼â”€â”€â”€â”¼â”€â”€â”€â”¼â”€â”€â”€â”¼â”€â”€â”€â”¤
 6 â”‚   â”‚   â”‚   â”‚   â”‚   â”‚   â”‚   â”‚   â”‚
   â”œâ”€â”€â”€â”¼â”€â”€â”€â”¼â”€â”€â”€â”¼â”€â”€â”€â”¼â”€â”€â”€â”¼â”€â”€â”€â”¼â”€â”€â”€â”¼â”€â”€â”€â”¤
 5 â”‚   â”‚   â”‚   â”‚   â”‚   â”‚   â”‚   â”‚   â”‚
   â”œâ”€â”€â”€â”¼â”€â”€â”€â”¼â”€â”€â”€â”¼â”€â”€â”€â”¼â”€â”€â”€â”¼â”€â”€â”€â”¼â”€â”€â”€â”¼â”€â”€â”€â”¤
 4 â”‚   â”‚   â”‚   â”‚   â”‚   â”‚   â”‚   â”‚   â”‚
   â”œâ”€â”€â”€â”¼â”€â”€â”€â”¼â”€â”€â”€â”¼â”€â”€â”€â”¼â”€â”€â”€â”¼â”€â”€â”€â”¼â”€â”€â”€â”¼â”€â”€â”€â”¤
 3 â”‚   â”‚   â”‚ â™ â”‚   â”‚   â”‚   â”‚   â”‚   â”‚
   â”œâ”€â”€â”€â”¼â”€â”€â”€â”¼â”€â”€â”€â”¼â”€â”€â”€â”¼â”€â”€â”€â”¼â”€â”€â”€â”¼â”€â”€â”€â”¼â”€â”€â”€â”¤
 2 â”‚ â™Ÿ â”‚ â™Ÿ â”‚ â™Ÿ â”‚ â™Ÿ â”‚ â™Ÿ â”‚ â™Ÿ â”‚ â™Ÿ â”‚ â™Ÿ â”‚
   â”œâ”€â”€â”€â”¼â”€â”€â”€â”¼â”€â”€â”€â”¼â”€â”€â”€â”¼â”€â”€â”€â”¼â”€â”€â”€â”¼â”€â”€â”€â”¼â”€â”€â”€â”¤
 1 â”‚ â™œ â”‚   â”‚ â™ â”‚ â™› â”‚ â™š â”‚ â™ â”‚ â™ â”‚ â™œ â”‚
   â””â”€â”€â”€â”´â”€â”€â”€â”´â”€â”€â”€â”´â”€â”€â”€â”´â”€â”€â”€â”´â”€â”€â”€â”´â”€â”€â”€â”´â”€â”€â”€â”˜
     a   b   c   d   e   f   g   h
b7b6
   â”Œâ”€â”€â”€â”¬â”€â”€â”€â”¬â”€â”€â”€â”¬â”€â”€â”€â”¬â”€â”€â”€â”¬â”€â”€â”€â”¬â”€â”€â”€â”¬â”€â”€â”€â”
 8 â”‚ â™– â”‚ â™˜ â”‚ â™— â”‚ â™• â”‚ â™” â”‚ â™— â”‚ â™˜ â”‚ â™– â”‚
   â”œâ”€â”€â”€â”¼â”€â”€â”€â”¼â”€â”€â”€â”¼â”€â”€â”€â”¼â”€â”€â”€â”¼â”€â”€â”€â”¼â”€â”€â”€â”¼â”€â”€â”€â”¤
 7 â”‚ â™™ â”‚   â”‚ â™™ â”‚ â™™ â”‚ â™™ â”‚ â™™ â”‚ â™™ â”‚ â™™ â”‚
   â”œâ”€â”€â”€â”¼â”€â”€â”€â”¼â”€â”€â”€â”¼â”€â”€â”€â”¼â”€â”€â”€â”¼â”€â”€â”€â”¼â”€â”€â”€â”¼â”€â”€â”€â”¤
 6 â”‚   â”‚ â™™ â”‚   â”‚   â”‚   â”‚   â”‚   â”‚   â”‚
   â”œâ”€â”€â”€â”¼â”€â”€â”€â”¼â”€â”€â”€â”¼â”€â”€â”€â”¼â”€â”€â”€â”¼â”€â”€â”€â”¼â”€â”€â”€â”¼â”€â”€â”€â”¤
 5 â”‚   â”‚   â”‚   â”‚   â”‚   â”‚   â”‚   â”‚   â”‚
   â”œâ”€â”€â”€â”¼â”€â”€â”€â”¼â”€â”€â”€â”¼â”€â”€â”€â”¼â”€â”€â”€â”¼â”€â”€â”€â”¼â”€â”€â”€â”¼â”€â”€â”€â”¤
 4 â”‚   â”‚   â”‚   â”‚   â”‚   â”‚   â”‚   â”‚   â”‚
   â”œâ”€â”€â”€â”¼â”€â”€â”€â”¼â”€â”€â”€â”¼â”€â”€â”€â”¼â”€â”€â”€â”¼â”€â”€â”€â”¼â”€â”€â”€â”¼â”€â”€â”€â”¤
 3 â”‚   â”‚   â”‚ â™ â”‚   â”‚   â”‚   â”‚   â”‚   â”‚
   â”œâ”€â”€â”€â”¼â”€â”€â”€â”¼â”€â”€â”€â”¼â”€â”€â”€â”¼â”€â”€â”€â”¼â”€â”€â”€â”¼â”€â”€â”€â”¼â”€â”€â”€â”¤
 2 â”‚ â™Ÿ â”‚ â™Ÿ â”‚ â™Ÿ â”‚ â™Ÿ â”‚ â™Ÿ â”‚ â™Ÿ â”‚ â™Ÿ â”‚ â™Ÿ â”‚
   â”œâ”€â”€â”€â”¼â”€â”€â”€â”¼â”€â”€â”€â”¼â”€â”€â”€â”¼â”€â”€â”€â”¼â”€â”€â”€â”¼â”€â”€â”€â”¼â”€â”€â”€â”¤
 1 â”‚ â™œ â”‚   â”‚ â™ â”‚ â™› â”‚ â™š â”‚ â™ â”‚ â™ â”‚ â™œ â”‚
   â””â”€â”€â”€â”´â”€â”€â”€â”´â”€â”€â”€â”´â”€â”€â”€â”´â”€â”€â”€â”´â”€â”€â”€â”´â”€â”€â”€â”´â”€â”€â”€â”˜
     a   b   c   d   e   f   g   h
g1f3
   â”Œâ”€â”€â”€â”¬â”€â”€â”€â”¬â”€â”€â”€â”¬â”€â”€â”€â”¬â”€â”€â”€â”¬â”€â”€â”€â”¬â”€â”€â”€â”¬â”€â”€â”€â”
 8 â”‚ â™– â”‚ â™˜ â”‚ â™— â”‚ â™• â”‚ â™” â”‚ â™— â”‚ â™˜ â”‚ â™– â”‚
   â”œâ”€â”€â”€â”¼â”€â”€â”€â”¼â”€â”€â”€â”¼â”€â”€â”€â”¼â”€â”€â”€â”¼â”€â”€â”€â”¼â”€â”€â”€â”¼â”€â”€â”€â”¤
 7 â”‚ â™™ â”‚   â”‚ â™™ â”‚ â™™ â”‚ â™™ â”‚ â™™ â”‚ â™™ â”‚ â™™ â”‚
   â”œâ”€â”€â”€â”¼â”€â”€â”€â”¼â”€â”€â”€â”¼â”€â”€â”€â”¼â”€â”€â”€â”¼â”€â”€â”€â”¼â”€â”€â”€â”¼â”€â”€â”€â”¤
 6 â”‚   â”‚ â™™ â”‚   â”‚   â”‚   â”‚   â”‚   â”‚   â”‚
   â”œâ”€â”€â”€â”¼â”€â”€â”€â”¼â”€â”€â”€â”¼â”€â”€â”€â”¼â”€â”€â”€â”¼â”€â”€â”€â”¼â”€â”€â”€â”¼â”€â”€â”€â”¤
 5 â”‚   â”‚   â”‚   â”‚   â”‚   â”‚   â”‚   â”‚   â”‚
   â”œâ”€â”€â”€â”¼â”€â”€â”€â”¼â”€â”€â”€â”¼â”€â”€â”€â”¼â”€â”€â”€â”¼â”€â”€â”€â”¼â”€â”€â”€â”¼â”€â”€â”€â”¤
 4 â”‚   â”‚   â”‚   â”‚   â”‚   â”‚   â”‚   â”‚   â”‚
   â”œâ”€â”€â”€â”¼â”€â”€â”€â”¼â”€â”€â”€â”¼â”€â”€â”€â”¼â”€â”€â”€â”¼â”€â”€â”€â”¼â”€â”€â”€â”¼â”€â”€â”€â”¤
 3 â”‚   â”‚   â”‚ â™ â”‚   â”‚   â”‚ â™ â”‚   â”‚   â”‚
   â”œâ”€â”€â”€â”¼â”€â”€â”€â”¼â”€â”€â”€â”¼â”€â”€â”€â”¼â”€â”€â”€â”¼â”€â”€â”€â”¼â”€â”€â”€â”¼â”€â”€â”€â”¤
 2 â”‚ â™Ÿ â”‚ â™Ÿ â”‚ â™Ÿ â”‚ â™Ÿ â”‚ â™Ÿ â”‚ â™Ÿ â”‚ â™Ÿ â”‚ â™Ÿ â”‚
   â”œâ”€â”€â”€â”¼â”€â”€â”€â”¼â”€â”€â”€â”¼â”€â”€â”€â”¼â”€â”€â”€â”¼â”€â”€â”€â”¼â”€â”€â”€â”¼â”€â”€â”€â”¤
 1 â”‚ â™œ â”‚   â”‚ â™ â”‚ â™› â”‚ â™š â”‚ â™ â”‚   â”‚ â™œ â”‚
   â””â”€â”€â”€â”´â”€â”€â”€â”´â”€â”€â”€â”´â”€â”€â”€â”´â”€â”€â”€â”´â”€â”€â”€â”´â”€â”€â”€â”´â”€â”€â”€â”˜
     a   b   c   d   e   f   g   h
f7f6
   â”Œâ”€â”€â”€â”¬â”€â”€â”€â”¬â”€â”€â”€â”¬â”€â”€â”€â”¬â”€â”€â”€â”¬â”€â”€â”€â”¬â”€â”€â”€â”¬â”€â”€â”€â”
 8 â”‚ â™– â”‚ â™˜ â”‚ â™— â”‚ â™• â”‚ â™” â”‚ â™— â”‚ â™˜ â”‚ â™– â”‚
   â”œâ”€â”€â”€â”¼â”€â”€â”€â”¼â”€â”€â”€â”¼â”€â”€â”€â”¼â”€â”€â”€â”¼â”€â”€â”€â”¼â”€â”€â”€â”¼â”€â”€â”€â”¤
 7 â”‚ â™™ â”‚   â”‚ â™™ â”‚ â™™ â”‚ â™™ â”‚   â”‚ â™™ â”‚ â™™ â”‚
   â”œâ”€â”€â”€â”¼â”€â”€â”€â”¼â”€â”€â”€â”¼â”€â”€â”€â”¼â”€â”€â”€â”¼â”€â”€â”€â”¼â”€â”€â”€â”¼â”€â”€â”€â”¤
 6 â”‚   â”‚ â™™ â”‚   â”‚   â”‚   â”‚ â™™ â”‚   â”‚   â”‚
   â”œâ”€â”€â”€â”¼â”€â”€â”€â”¼â”€â”€â”€â”¼â”€â”€â”€â”¼â”€â”€â”€â”¼â”€â”€â”€â”¼â”€â”€â”€â”¼â”€â”€â”€â”¤
 5 â”‚   â”‚   â”‚   â”‚   â”‚   â”‚   â”‚   â”‚   â”‚
   â”œâ”€â”€â”€â”¼â”€â”€â”€â”¼â”€â”€â”€â”¼â”€â”€â”€â”¼â”€â”€â”€â”¼â”€â”€â”€â”¼â”€â”€â”€â”¼â”€â”€â”€â”¤
 4 â”‚   â”‚   â”‚   â”‚   â”‚   â”‚   â”‚   â”‚   â”‚
   â”œâ”€â”€â”€â”¼â”€â”€â”€â”¼â”€â”€â”€â”¼â”€â”€â”€â”¼â”€â”€â”€â”¼â”€â”€â”€â”¼â”€â”€â”€â”¼â”€â”€â”€â”¤
 3 â”‚   â”‚   â”‚ â™ â”‚   â”‚   â”‚ â™ â”‚   â”‚   â”‚
   â”œâ”€â”€â”€â”¼â”€â”€â”€â”¼â”€â”€â”€â”¼â”€â”€â”€â”¼â”€â”€â”€â”¼â”€â”€â”€â”¼â”€â”€â”€â”¼â”€â”€â”€â”¤
 2 â”‚ â™Ÿ â”‚ â™Ÿ â”‚ â™Ÿ â”‚ â™Ÿ â”‚ â™Ÿ â”‚ â™Ÿ â”‚ â™Ÿ â”‚ â™Ÿ â”‚
   â”œâ”€â”€â”€â”¼â”€â”€â”€â”¼â”€â”€â”€â”¼â”€â”€â”€â”¼â”€â”€â”€â”¼â”€â”€â”€â”¼â”€â”€â”€â”¼â”€â”€â”€â”¤
 1 â”‚ â™œ â”‚   â”‚ â™ â”‚ â™› â”‚ â™š â”‚ â™ â”‚   â”‚ â™œ â”‚
   â””â”€â”€â”€â”´â”€â”€â”€â”´â”€â”€â”€â”´â”€â”€â”€â”´â”€â”€â”€â”´â”€â”€â”€â”´â”€â”€â”€â”´â”€â”€â”€â”˜
     a   b   c   d   e   f   g   h
e2e4
   â”Œâ”€â”€â”€â”¬â”€â”€â”€â”¬â”€â”€â”€â”¬â”€â”€â”€â”¬â”€â”€â”€â”¬â”€â”€â”€â”¬â”€â”€â”€â”¬â”€â”€â”€â”
 8 â”‚ â™– â”‚ â™˜ â”‚ â™— â”‚ â™• â”‚ â™” â”‚ â™— â”‚ â™˜ â”‚ â™– â”‚
   â”œâ”€â”€â”€â”¼â”€â”€â”€â”¼â”€â”€â”€â”¼â”€â”€â”€â”¼â”€â”€â”€â”¼â”€â”€â”€â”¼â”€â”€â”€â”¼â”€â”€â”€â”¤
 7 â”‚ â™™ â”‚   â”‚ â™™ â”‚ â™™ â”‚ â™™ â”‚   â”‚ â™™ â”‚ â™™ â”‚
   â”œâ”€â”€â”€â”¼â”€â”€â”€â”¼â”€â”€â”€â”¼â”€â”€â”€â”¼â”€â”€â”€â”¼â”€â”€â”€â”¼â”€â”€â”€â”¼â”€â”€â”€â”¤
 6 â”‚   â”‚ â™™ â”‚   â”‚   â”‚   â”‚ â™™ â”‚   â”‚   â”‚
   â”œâ”€â”€â”€â”¼â”€â”€â”€â”¼â”€â”€â”€â”¼â”€â”€â”€â”¼â”€â”€â”€â”¼â”€â”€â”€â”¼â”€â”€â”€â”¼â”€â”€â”€â”¤
 5 â”‚   â”‚   â”‚   â”‚   â”‚   â”‚   â”‚   â”‚   â”‚
   â”œâ”€â”€â”€â”¼â”€â”€â”€â”¼â”€â”€â”€â”¼â”€â”€â”€â”¼â”€â”€â”€â”¼â”€â”€â”€â”¼â”€â”€â”€â”¼â”€â”€â”€â”¤
 4 â”‚   â”‚   â”‚   â”‚   â”‚ â™Ÿ â”‚   â”‚   â”‚   â”‚
   â”œâ”€â”€â”€â”¼â”€â”€â”€â”¼â”€â”€â”€â”¼â”€â”€â”€â”¼â”€â”€â”€â”¼â”€â”€â”€â”¼â”€â”€â”€â”¼â”€â”€â”€â”¤
 3 â”‚   â”‚   â”‚ â™ â”‚   â”‚   â”‚ â™ â”‚   â”‚   â”‚
   â”œâ”€â”€â”€â”¼â”€â”€â”€â”¼â”€â”€â”€â”¼â”€â”€â”€â”¼â”€â”€â”€â”¼â”€â”€â”€â”¼â”€â”€â”€â”¼â”€â”€â”€â”¤
 2 â”‚ â™Ÿ â”‚ â™Ÿ â”‚ â™Ÿ â”‚ â™Ÿ â”‚   â”‚ â™Ÿ â”‚ â™Ÿ â”‚ â™Ÿ â”‚
   â”œâ”€â”€â”€â”¼â”€â”€â”€â”¼â”€â”€â”€â”¼â”€â”€â”€â”¼â”€â”€â”€â”¼â”€â”€â”€â”¼â”€â”€â”€â”¼â”€â”€â”€â”¤
 1 â”‚ â™œ â”‚   â”‚ â™ â”‚ â™› â”‚ â™š â”‚ â™ â”‚   â”‚ â™œ â”‚
   â””â”€â”€â”€â”´â”€â”€â”€â”´â”€â”€â”€â”´â”€â”€â”€â”´â”€â”€â”€â”´â”€â”€â”€â”´â”€â”€â”€â”´â”€â”€â”€â”˜
     a   b   c   d   e   f   g   h
Error: Could not open file: "/data/julien/Pro/git/teaching/x/2024/Resources/openingBook.txt"
Depth: 1 Best move found: g7g5 Evaluation: -361 Nodes searched: 84 (Alpha Beta 4, Quiescence 80)
Depth: 2 Best move found: g7g5 Evaluation: -443 Nodes searched: 285 (Alpha Beta 21, Quiescence 264)
Depth: 3 Best move found: c8a6 Evaluation: -426 Nodes searched: 1350 (Alpha Beta 350, Quiescence 1000)
Depth: 4 Best move found: e7e6 Evaluation: -460 Nodes searched: 6608 (Alpha Beta 1363, Quiescence 5245)
Depth: 5 Best move found: g7g5 Evaluation: -419 Nodes searched: 19798 (Alpha Beta 5750, Quiescence 14048)
Time Elapsed: 9901ms
[32;1m[Game] [0mPlayer's error code: 0
[32;1m[Game] [0mChecking move validity...
[32;1m[Board] [0mInitializing board...
[32;1m[Board] [0mLoading history file `championship/lizzie-iii-kean-chess-engine/history.csv`...
[32;1m[Board] [0mLoaded 5 move(s).
[32;1m[Board] [0mLoading move file `championship/lizzie-iii-kean-chess-engine/move.csv`...
[32;1m[Board] [0mBlack player is playing g7 to g5.
[32;1m[Board] [0m
[32;1m[Board] [0m    a b c d e f g h 
[32;1m[Board] [0m  -------------------
[32;1m[Board] [0m8 ||[30;1mr[0m|[30;1mk[0m|[30;1mb[0m|[30;1mQ[0m|[30;1mK[0m|[30;1mb[0m|[30;1mk[0m|[30;1mr[0m|| 8
[32;1m[Board] [0m  -------------------
[32;1m[Board] [0m7 ||[30;1mp[0m|[7;1m [0m|[30;1mp[0m|[30;1mp[0m|[30;1mp[0m|[7;1m [0m| |[30;1mp[0m|| 7
[32;1m[Board] [0m  -------------------
[32;1m[Board] [0m6 ||[7;1m [0m|[30;1mp[0m|[7;1m [0m| |[7;1m [0m|[30;1mp[0m|[7;1m [0m| || 6
[32;1m[Board] [0m  -------------------
[32;1m[Board] [0m5 || |[7;1m [0m| |[7;1m [0m| |[7;1m [0m|[30;1mp[0m|[7;1m [0m|| 5
[32;1m[Board] [0m  -------------------
[32;1m[Board] [0m4 ||[7;1m [0m| |[7;1m [0m| |[0;1mp[0m| |[7;1m [0m| || 4
[32;1m[Board] [0m  -------------------
[32;1m[Board] [0m3 || |[7;1m [0m|[0;1mk[0m|[7;1m [0m| |[0;1mk[0m| |[7;1m [0m|| 3
[32;1m[Board] [0m  -------------------
[32;1m[Board] [0m2 ||[0;1mp[0m|[0;1mp[0m|[0;1mp[0m|[0;1mp[0m|[7;1m [0m|[0;1mp[0m|[0;1mp[0m|[0;1mp[0m|| 2
[32;1m[Board] [0m  -------------------
[32;1m[Board] [0m1 ||[0;1mr[0m|[7;1m [0m|[0;1mb[0m|[0;1mQ[0m|[0;1mK[0m|[0;1mb[0m| |[0;1mr[0m|| 1
[32;1m[Board] [0m  -------------------
[32;1m[Board] [0m    a b c d e f g h
[32;1m[Board] [0m
[32;1m[Referee] [0mThis is the turn of the White player...
Input file: championship/lizzie-iii-kean-chess-engine/history.csv
Output file: championship/lizzie-iii-kean-chess-engine/move.csv
We are playing as White
8 | [1;31mR[0m [1;31mN[0m [1;31mB[0m [1;31mQ[0m [1;31mK[0m [1;31mB[0m [1;31mN[0m [1;31mR[0m 
7 | [1;31mP[0m [1;30m_[0m [1;31mP[0m [1;31mP[0m [1;31mP[0m [1;30m_[0m [1;30m_[0m [1;31mP[0m 
6 | [1;30m_[0m [1;31mP[0m [1;30m_[0m [1;30m_[0m [1;30m_[0m [1;31mP[0m [1;30m_[0m [1;30m_[0m 
5 | [1;30m_[0m [1;30m_[0m [1;30m_[0m [1;30m_[0m [1;30m_[0m [1;30m_[0m [1;31mP[0m [1;30m_[0m 
4 | [1;30m_[0m [1;30m_[0m [1;30m_[0m [1;30m_[0m [1;32mP[0m [1;30m_[0m [1;30m_[0m [1;30m_[0m 
3 | [1;30m_[0m [1;30m_[0m [1;32mN[0m [1;30m_[0m [1;30m_[0m [1;32mN[0m [1;30m_[0m [1;30m_[0m 
2 | [1;32mP[0m [1;32mP[0m [1;32mP[0m [1;32mP[0m [1;30m_[0m [1;32mP[0m [1;32mP[0m [1;32mP[0m 
1 | [1;32mR[0m [1;30m_[0m [1;32mB[0m [1;32mQ[0m [1;32mK[0m [1;32mB[0m [1;30m_[0m [1;32mR[0m 
-------------------
  | A B C D E F G H 

It is white's turn to play.
Times this board has been seen: 0
Best move: f3g5
Evaluation: 235
[32;1m[Game] [0mPlayer's error code: 0
[32;1m[Game] [0mChecking move validity...
[32;1m[Board] [0mInitializing board...
[32;1m[Board] [0mLoading history file `championship/lizzie-iii-kean-chess-engine/history.csv`...
[32;1m[Board] [0mLoaded 6 move(s).
[32;1m[Board] [0mLoading move file `championship/lizzie-iii-kean-chess-engine/move.csv`...
[32;1m[Board] [0mWhite player is playing f3 to g5.
[32;1m[Board] [0m[5;1mWhite Knight is taking Black Pawn.[0m
[32;1m[Board] [0m
[32;1m[Board] [0m    a b c d e f g h 
[32;1m[Board] [0m  -------------------
[32;1m[Board] [0m8 ||[30;1mr[0m|[30;1mk[0m|[30;1mb[0m|[30;1mQ[0m|[30;1mK[0m|[30;1mb[0m|[30;1mk[0m|[30;1mr[0m|| 8
[32;1m[Board] [0m  -------------------
[32;1m[Board] [0m7 ||[30;1mp[0m|[7;1m [0m|[30;1mp[0m|[30;1mp[0m|[30;1mp[0m|[7;1m [0m| |[30;1mp[0m|| 7
[32;1m[Board] [0m  -------------------
[32;1m[Board] [0m6 ||[7;1m [0m|[30;1mp[0m|[7;1m [0m| |[7;1m [0m|[30;1mp[0m|[7;1m [0m| || 6
[32;1m[Board] [0m  -------------------
[32;1m[Board] [0m5 || |[7;1m [0m| |[7;1m [0m| |[7;1m [0m|[0;1mk[0m|[7;1m [0m|| 5
[32;1m[Board] [0m  -------------------
[32;1m[Board] [0m4 ||[7;1m [0m| |[7;1m [0m| |[0;1mp[0m| |[7;1m [0m| || 4
[32;1m[Board] [0m  -------------------
[32;1m[Board] [0m3 || |[7;1m [0m|[0;1mk[0m|[7;1m [0m| |[7;1m [0m| |[7;1m [0m|| 3
[32;1m[Board] [0m  -------------------
[32;1m[Board] [0m2 ||[0;1mp[0m|[0;1mp[0m|[0;1mp[0m|[0;1mp[0m|[7;1m [0m|[0;1mp[0m|[0;1mp[0m|[0;1mp[0m|| 2
[32;1m[Board] [0m  -------------------
[32;1m[Board] [0m1 ||[0;1mr[0m|[7;1m [0m|[0;1mb[0m|[0;1mQ[0m|[0;1mK[0m|[0;1mb[0m| |[0;1mr[0m|| 1
[32;1m[Board] [0m  -------------------
[32;1m[Board] [0m    a b c d e f g h
[32;1m[Board] [0m
[32;1m[Referee] [0mThis is the turn of the Black player...
b1c3
   â”Œâ”€â”€â”€â”¬â”€â”€â”€â”¬â”€â”€â”€â”¬â”€â”€â”€â”¬â”€â”€â”€â”¬â”€â”€â”€â”¬â”€â”€â”€â”¬â”€â”€â”€â”
 8 â”‚ â™– â”‚ â™˜ â”‚ â™— â”‚ â™• â”‚ â™” â”‚ â™— â”‚ â™˜ â”‚ â™– â”‚
   â”œâ”€â”€â”€â”¼â”€â”€â”€â”¼â”€â”€â”€â”¼â”€â”€â”€â”¼â”€â”€â”€â”¼â”€â”€â”€â”¼â”€â”€â”€â”¼â”€â”€â”€â”¤
 7 â”‚ â™™ â”‚ â™™ â”‚ â™™ â”‚ â™™ â”‚ â™™ â”‚ â™™ â”‚ â™™ â”‚ â™™ â”‚
   â”œâ”€â”€â”€â”¼â”€â”€â”€â”¼â”€â”€â”€â”¼â”€â”€â”€â”¼â”€â”€â”€â”¼â”€â”€â”€â”¼â”€â”€â”€â”¼â”€â”€â”€â”¤
 6 â”‚   â”‚   â”‚   â”‚   â”‚   â”‚   â”‚   â”‚   â”‚
   â”œâ”€â”€â”€â”¼â”€â”€â”€â”¼â”€â”€â”€â”¼â”€â”€â”€â”¼â”€â”€â”€â”¼â”€â”€â”€â”¼â”€â”€â”€â”¼â”€â”€â”€â”¤
 5 â”‚   â”‚   â”‚   â”‚   â”‚   â”‚   â”‚   â”‚   â”‚
   â”œâ”€â”€â”€â”¼â”€â”€â”€â”¼â”€â”€â”€â”¼â”€â”€â”€â”¼â”€â”€â”€â”¼â”€â”€â”€â”¼â”€â”€â”€â”¼â”€â”€â”€â”¤
 4 â”‚   â”‚   â”‚   â”‚   â”‚   â”‚   â”‚   â”‚   â”‚
   â”œâ”€â”€â”€â”¼â”€â”€â”€â”¼â”€â”€â”€â”¼â”€â”€â”€â”¼â”€â”€â”€â”¼â”€â”€â”€â”¼â”€â”€â”€â”¼â”€â”€â”€â”¤
 3 â”‚   â”‚   â”‚ â™ â”‚   â”‚   â”‚   â”‚   â”‚   â”‚
   â”œâ”€â”€â”€â”¼â”€â”€â”€â”¼â”€â”€â”€â”¼â”€â”€â”€â”¼â”€â”€â”€â”¼â”€â”€â”€â”¼â”€â”€â”€â”¼â”€â”€â”€â”¤
 2 â”‚ â™Ÿ â”‚ â™Ÿ â”‚ â™Ÿ â”‚ â™Ÿ â”‚ â™Ÿ â”‚ â™Ÿ â”‚ â™Ÿ â”‚ â™Ÿ â”‚
   â”œâ”€â”€â”€â”¼â”€â”€â”€â”¼â”€â”€â”€â”¼â”€â”€â”€â”¼â”€â”€â”€â”¼â”€â”€â”€â”¼â”€â”€â”€â”¼â”€â”€â”€â”¤
 1 â”‚ â™œ â”‚   â”‚ â™ â”‚ â™› â”‚ â™š â”‚ â™ â”‚ â™ â”‚ â™œ â”‚
   â””â”€â”€â”€â”´â”€â”€â”€â”´â”€â”€â”€â”´â”€â”€â”€â”´â”€â”€â”€â”´â”€â”€â”€â”´â”€â”€â”€â”´â”€â”€â”€â”˜
     a   b   c   d   e   f   g   h
b7b6
   â”Œâ”€â”€â”€â”¬â”€â”€â”€â”¬â”€â”€â”€â”¬â”€â”€â”€â”¬â”€â”€â”€â”¬â”€â”€â”€â”¬â”€â”€â”€â”¬â”€â”€â”€â”
 8 â”‚ â™– â”‚ â™˜ â”‚ â™— â”‚ â™• â”‚ â™” â”‚ â™— â”‚ â™˜ â”‚ â™– â”‚
   â”œâ”€â”€â”€â”¼â”€â”€â”€â”¼â”€â”€â”€â”¼â”€â”€â”€â”¼â”€â”€â”€â”¼â”€â”€â”€â”¼â”€â”€â”€â”¼â”€â”€â”€â”¤
 7 â”‚ â™™ â”‚   â”‚ â™™ â”‚ â™™ â”‚ â™™ â”‚ â™™ â”‚ â™™ â”‚ â™™ â”‚
   â”œâ”€â”€â”€â”¼â”€â”€â”€â”¼â”€â”€â”€â”¼â”€â”€â”€â”¼â”€â”€â”€â”¼â”€â”€â”€â”¼â”€â”€â”€â”¼â”€â”€â”€â”¤
 6 â”‚   â”‚ â™™ â”‚   â”‚   â”‚   â”‚   â”‚   â”‚   â”‚
   â”œâ”€â”€â”€â”¼â”€â”€â”€â”¼â”€â”€â”€â”¼â”€â”€â”€â”¼â”€â”€â”€â”¼â”€â”€â”€â”¼â”€â”€â”€â”¼â”€â”€â”€â”¤
 5 â”‚   â”‚   â”‚   â”‚   â”‚   â”‚   â”‚   â”‚   â”‚
   â”œâ”€â”€â”€â”¼â”€â”€â”€â”¼â”€â”€â”€â”¼â”€â”€â”€â”¼â”€â”€â”€â”¼â”€â”€â”€â”¼â”€â”€â”€â”¼â”€â”€â”€â”¤
 4 â”‚   â”‚   â”‚   â”‚   â”‚   â”‚   â”‚   â”‚   â”‚
   â”œâ”€â”€â”€â”¼â”€â”€â”€â”¼â”€â”€â”€â”¼â”€â”€â”€â”¼â”€â”€â”€â”¼â”€â”€â”€â”¼â”€â”€â”€â”¼â”€â”€â”€â”¤
 3 â”‚   â”‚   â”‚ â™ â”‚   â”‚   â”‚   â”‚   â”‚   â”‚
   â”œâ”€â”€â”€â”¼â”€â”€â”€â”¼â”€â”€â”€â”¼â”€â”€â”€â”¼â”€â”€â”€â”¼â”€â”€â”€â”¼â”€â”€â”€â”¼â”€â”€â”€â”¤
 2 â”‚ â™Ÿ â”‚ â™Ÿ â”‚ â™Ÿ â”‚ â™Ÿ â”‚ â™Ÿ â”‚ â™Ÿ â”‚ â™Ÿ â”‚ â™Ÿ â”‚
   â”œâ”€â”€â”€â”¼â”€â”€â”€â”¼â”€â”€â”€â”¼â”€â”€â”€â”¼â”€â”€â”€â”¼â”€â”€â”€â”¼â”€â”€â”€â”¼â”€â”€â”€â”¤
 1 â”‚ â™œ â”‚   â”‚ â™ â”‚ â™› â”‚ â™š â”‚ â™ â”‚ â™ â”‚ â™œ â”‚
   â””â”€â”€â”€â”´â”€â”€â”€â”´â”€â”€â”€â”´â”€â”€â”€â”´â”€â”€â”€â”´â”€â”€â”€â”´â”€â”€â”€â”´â”€â”€â”€â”˜
     a   b   c   d   e   f   g   h
g1f3
   â”Œâ”€â”€â”€â”¬â”€â”€â”€â”¬â”€â”€â”€â”¬â”€â”€â”€â”¬â”€â”€â”€â”¬â”€â”€â”€â”¬â”€â”€â”€â”¬â”€â”€â”€â”
 8 â”‚ â™– â”‚ â™˜ â”‚ â™— â”‚ â™• â”‚ â™” â”‚ â™— â”‚ â™˜ â”‚ â™– â”‚
   â”œâ”€â”€â”€â”¼â”€â”€â”€â”¼â”€â”€â”€â”¼â”€â”€â”€â”¼â”€â”€â”€â”¼â”€â”€â”€â”¼â”€â”€â”€â”¼â”€â”€â”€â”¤
 7 â”‚ â™™ â”‚   â”‚ â™™ â”‚ â™™ â”‚ â™™ â”‚ â™™ â”‚ â™™ â”‚ â™™ â”‚
   â”œâ”€â”€â”€â”¼â”€â”€â”€â”¼â”€â”€â”€â”¼â”€â”€â”€â”¼â”€â”€â”€â”¼â”€â”€â”€â”¼â”€â”€â”€â”¼â”€â”€â”€â”¤
 6 â”‚   â”‚ â™™ â”‚   â”‚   â”‚   â”‚   â”‚   â”‚   â”‚
   â”œâ”€â”€â”€â”¼â”€â”€â”€â”¼â”€â”€â”€â”¼â”€â”€â”€â”¼â”€â”€â”€â”¼â”€â”€â”€â”¼â”€â”€â”€â”¼â”€â”€â”€â”¤
 5 â”‚   â”‚   â”‚   â”‚   â”‚   â”‚   â”‚   â”‚   â”‚
   â”œâ”€â”€â”€â”¼â”€â”€â”€â”¼â”€â”€â”€â”¼â”€â”€â”€â”¼â”€â”€â”€â”¼â”€â”€â”€â”¼â”€â”€â”€â”¼â”€â”€â”€â”¤
 4 â”‚   â”‚   â”‚   â”‚   â”‚   â”‚   â”‚   â”‚   â”‚
   â”œâ”€â”€â”€â”¼â”€â”€â”€â”¼â”€â”€â”€â”¼â”€â”€â”€â”¼â”€â”€â”€â”¼â”€â”€â”€â”¼â”€â”€â”€â”¼â”€â”€â”€â”¤
 3 â”‚   â”‚   â”‚ â™ â”‚   â”‚   â”‚ â™ â”‚   â”‚   â”‚
   â”œâ”€â”€â”€â”¼â”€â”€â”€â”¼â”€â”€â”€â”¼â”€â”€â”€â”¼â”€â”€â”€â”¼â”€â”€â”€â”¼â”€â”€â”€â”¼â”€â”€â”€â”¤
 2 â”‚ â™Ÿ â”‚ â™Ÿ â”‚ â™Ÿ â”‚ â™Ÿ â”‚ â™Ÿ â”‚ â™Ÿ â”‚ â™Ÿ â”‚ â™Ÿ â”‚
   â”œâ”€â”€â”€â”¼â”€â”€â”€â”¼â”€â”€â”€â”¼â”€â”€â”€â”¼â”€â”€â”€â”¼â”€â”€â”€â”¼â”€â”€â”€â”¼â”€â”€â”€â”¤
 1 â”‚ â™œ â”‚   â”‚ â™ â”‚ â™› â”‚ â™š â”‚ â™ â”‚   â”‚ â™œ â”‚
   â””â”€â”€â”€â”´â”€â”€â”€â”´â”€â”€â”€â”´â”€â”€â”€â”´â”€â”€â”€â”´â”€â”€â”€â”´â”€â”€â”€â”´â”€â”€â”€â”˜
     a   b   c   d   e   f   g   h
f7f6
   â”Œâ”€â”€â”€â”¬â”€â”€â”€â”¬â”€â”€â”€â”¬â”€â”€â”€â”¬â”€â”€â”€â”¬â”€â”€â”€â”¬â”€â”€â”€â”¬â”€â”€â”€â”
 8 â”‚ â™– â”‚ â™˜ â”‚ â™— â”‚ â™• â”‚ â™” â”‚ â™— â”‚ â™˜ â”‚ â™– â”‚
   â”œâ”€â”€â”€â”¼â”€â”€â”€â”¼â”€â”€â”€â”¼â”€â”€â”€â”¼â”€â”€â”€â”¼â”€â”€â”€â”¼â”€â”€â”€â”¼â”€â”€â”€â”¤
 7 â”‚ â™™ â”‚   â”‚ â™™ â”‚ â™™ â”‚ â™™ â”‚   â”‚ â™™ â”‚ â™™ â”‚
   â”œâ”€â”€â”€â”¼â”€â”€â”€â”¼â”€â”€â”€â”¼â”€â”€â”€â”¼â”€â”€â”€â”¼â”€â”€â”€â”¼â”€â”€â”€â”¼â”€â”€â”€â”¤
 6 â”‚   â”‚ â™™ â”‚   â”‚   â”‚   â”‚ â™™ â”‚   â”‚   â”‚
   â”œâ”€â”€â”€â”¼â”€â”€â”€â”¼â”€â”€â”€â”¼â”€â”€â”€â”¼â”€â”€â”€â”¼â”€â”€â”€â”¼â”€â”€â”€â”¼â”€â”€â”€â”¤
 5 â”‚   â”‚   â”‚   â”‚   â”‚   â”‚   â”‚   â”‚   â”‚
   â”œâ”€â”€â”€â”¼â”€â”€â”€â”¼â”€â”€â”€â”¼â”€â”€â”€â”¼â”€â”€â”€â”¼â”€â”€â”€â”¼â”€â”€â”€â”¼â”€â”€â”€â”¤
 4 â”‚   â”‚   â”‚   â”‚   â”‚   â”‚   â”‚   â”‚   â”‚
   â”œâ”€â”€â”€â”¼â”€â”€â”€â”¼â”€â”€â”€â”¼â”€â”€â”€â”¼â”€â”€â”€â”¼â”€â”€â”€â”¼â”€â”€â”€â”¼â”€â”€â”€â”¤
 3 â”‚   â”‚   â”‚ â™ â”‚   â”‚   â”‚ â™ â”‚   â”‚   â”‚
   â”œâ”€â”€â”€â”¼â”€â”€â”€â”¼â”€â”€â”€â”¼â”€â”€â”€â”¼â”€â”€â”€â”¼â”€â”€â”€â”¼â”€â”€â”€â”¼â”€â”€â”€â”¤
 2 â”‚ â™Ÿ â”‚ â™Ÿ â”‚ â™Ÿ â”‚ â™Ÿ â”‚ â™Ÿ â”‚ â™Ÿ â”‚ â™Ÿ â”‚ â™Ÿ â”‚
   â”œâ”€â”€â”€â”¼â”€â”€â”€â”¼â”€â”€â”€â”¼â”€â”€â”€â”¼â”€â”€â”€â”¼â”€â”€â”€â”¼â”€â”€â”€â”¼â”€â”€â”€â”¤
 1 â”‚ â™œ â”‚   â”‚ â™ â”‚ â™› â”‚ â™š â”‚ â™ â”‚   â”‚ â™œ â”‚
   â””â”€â”€â”€â”´â”€â”€â”€â”´â”€â”€â”€â”´â”€â”€â”€â”´â”€â”€â”€â”´â”€â”€â”€â”´â”€â”€â”€â”´â”€â”€â”€â”˜
     a   b   c   d   e   f   g   h
e2e4
   â”Œâ”€â”€â”€â”¬â”€â”€â”€â”¬â”€â”€â”€â”¬â”€â”€â”€â”¬â”€â”€â”€â”¬â”€â”€â”€â”¬â”€â”€â”€â”¬â”€â”€â”€â”
 8 â”‚ â™– â”‚ â™˜ â”‚ â™— â”‚ â™• â”‚ â™” â”‚ â™— â”‚ â™˜ â”‚ â™– â”‚
   â”œâ”€â”€â”€â”¼â”€â”€â”€â”¼â”€â”€â”€â”¼â”€â”€â”€â”¼â”€â”€â”€â”¼â”€â”€â”€â”¼â”€â”€â”€â”¼â”€â”€â”€â”¤
 7 â”‚ â™™ â”‚   â”‚ â™™ â”‚ â™™ â”‚ â™™ â”‚   â”‚ â™™ â”‚ â™™ â”‚
   â”œâ”€â”€â”€â”¼â”€â”€â”€â”¼â”€â”€â”€â”¼â”€â”€â”€â”¼â”€â”€â”€â”¼â”€â”€â”€â”¼â”€â”€â”€â”¼â”€â”€â”€â”¤
 6 â”‚   â”‚ â™™ â”‚   â”‚   â”‚   â”‚ â™™ â”‚   â”‚   â”‚
   â”œâ”€â”€â”€â”¼â”€â”€â”€â”¼â”€â”€â”€â”¼â”€â”€â”€â”¼â”€â”€â”€â”¼â”€â”€â”€â”¼â”€â”€â”€â”¼â”€â”€â”€â”¤
 5 â”‚   â”‚   â”‚   â”‚   â”‚   â”‚   â”‚   â”‚   â”‚
   â”œâ”€â”€â”€â”¼â”€â”€â”€â”¼â”€â”€â”€â”¼â”€â”€â”€â”¼â”€â”€â”€â”¼â”€â”€â”€â”¼â”€â”€â”€â”¼â”€â”€â”€â”¤
 4 â”‚   â”‚   â”‚   â”‚   â”‚ â™Ÿ â”‚   â”‚   â”‚   â”‚
   â”œâ”€â”€â”€â”¼â”€â”€â”€â”¼â”€â”€â”€â”¼â”€â”€â”€â”¼â”€â”€â”€â”¼â”€â”€â”€â”¼â”€â”€â”€â”¼â”€â”€â”€â”¤
 3 â”‚   â”‚   â”‚ â™ â”‚   â”‚   â”‚ â™ â”‚   â”‚   â”‚
   â”œâ”€â”€â”€â”¼â”€â”€â”€â”¼â”€â”€â”€â”¼â”€â”€â”€â”¼â”€â”€â”€â”¼â”€â”€â”€â”¼â”€â”€â”€â”¼â”€â”€â”€â”¤
 2 â”‚ â™Ÿ â”‚ â™Ÿ â”‚ â™Ÿ â”‚ â™Ÿ â”‚   â”‚ â™Ÿ â”‚ â™Ÿ â”‚ â™Ÿ â”‚
   â”œâ”€â”€â”€â”¼â”€â”€â”€â”¼â”€â”€â”€â”¼â”€â”€â”€â”¼â”€â”€â”€â”¼â”€â”€â”€â”¼â”€â”€â”€â”¼â”€â”€â”€â”¤
 1 â”‚ â™œ â”‚   â”‚ â™ â”‚ â™› â”‚ â™š â”‚ â™ â”‚   â”‚ â™œ â”‚
   â””â”€â”€â”€â”´â”€â”€â”€â”´â”€â”€â”€â”´â”€â”€â”€â”´â”€â”€â”€â”´â”€â”€â”€â”´â”€â”€â”€â”´â”€â”€â”€â”˜
     a   b   c   d   e   f   g   h
g7g5
   â”Œâ”€â”€â”€â”¬â”€â”€â”€â”¬â”€â”€â”€â”¬â”€â”€â”€â”¬â”€â”€â”€â”¬â”€â”€â”€â”¬â”€â”€â”€â”¬â”€â”€â”€â”
 8 â”‚ â™– â”‚ â™˜ â”‚ â™— â”‚ â™• â”‚ â™” â”‚ â™— â”‚ â™˜ â”‚ â™– â”‚
   â”œâ”€â”€â”€â”¼â”€â”€â”€â”¼â”€â”€â”€â”¼â”€â”€â”€â”¼â”€â”€â”€â”¼â”€â”€â”€â”¼â”€â”€â”€â”¼â”€â”€â”€â”¤
 7 â”‚ â™™ â”‚   â”‚ â™™ â”‚ â™™ â”‚ â™™ â”‚   â”‚   â”‚ â™™ â”‚
   â”œâ”€â”€â”€â”¼â”€â”€â”€â”¼â”€â”€â”€â”¼â”€â”€â”€â”¼â”€â”€â”€â”¼â”€â”€â”€â”¼â”€â”€â”€â”¼â”€â”€â”€â”¤
 6 â”‚   â”‚ â™™ â”‚   â”‚   â”‚   â”‚ â™™ â”‚   â”‚   â”‚
   â”œâ”€â”€â”€â”¼â”€â”€â”€â”¼â”€â”€â”€â”¼â”€â”€â”€â”¼â”€â”€â”€â”¼â”€â”€â”€â”¼â”€â”€â”€â”¼â”€â”€â”€â”¤
 5 â”‚   â”‚   â”‚   â”‚   â”‚   â”‚   â”‚ â™™ â”‚   â”‚
   â”œâ”€â”€â”€â”¼â”€â”€â”€â”¼â”€â”€â”€â”¼â”€â”€â”€â”¼â”€â”€â”€â”¼â”€â”€â”€â”¼â”€â”€â”€â”¼â”€â”€â”€â”¤
 4 â”‚   â”‚   â”‚   â”‚   â”‚ â™Ÿ â”‚   â”‚   â”‚   â”‚
   â”œâ”€â”€â”€â”¼â”€â”€â”€â”¼â”€â”€â”€â”¼â”€â”€â”€â”¼â”€â”€â”€â”¼â”€â”€â”€â”¼â”€â”€â”€â”¼â”€â”€â”€â”¤
 3 â”‚   â”‚   â”‚ â™ â”‚   â”‚   â”‚ â™ â”‚   â”‚   â”‚
   â”œâ”€â”€â”€â”¼â”€â”€â”€â”¼â”€â”€â”€â”¼â”€â”€â”€â”¼â”€â”€â”€â”¼â”€â”€â”€â”¼â”€â”€â”€â”¼â”€â”€â”€â”¤
 2 â”‚ â™Ÿ â”‚ â™Ÿ â”‚ â™Ÿ â”‚ â™Ÿ â”‚   â”‚ â™Ÿ â”‚ â™Ÿ â”‚ â™Ÿ â”‚
   â”œâ”€â”€â”€â”¼â”€â”€â”€â”¼â”€â”€â”€â”¼â”€â”€â”€â”¼â”€â”€â”€â”¼â”€â”€â”€â”¼â”€â”€â”€â”¼â”€â”€â”€â”¤
 1 â”‚ â™œ â”‚   â”‚ â™ â”‚ â™› â”‚ â™š â”‚ â™ â”‚   â”‚ â™œ â”‚
   â””â”€â”€â”€â”´â”€â”€â”€â”´â”€â”€â”€â”´â”€â”€â”€â”´â”€â”€â”€â”´â”€â”€â”€â”´â”€â”€â”€â”´â”€â”€â”€â”˜
     a   b   c   d   e   f   g   h
f3g5
   â”Œâ”€â”€â”€â”¬â”€â”€â”€â”¬â”€â”€â”€â”¬â”€â”€â”€â”¬â”€â”€â”€â”¬â”€â”€â”€â”¬â”€â”€â”€â”¬â”€â”€â”€â”
 8 â”‚ â™– â”‚ â™˜ â”‚ â™— â”‚ â™• â”‚ â™” â”‚ â™— â”‚ â™˜ â”‚ â™– â”‚
   â”œâ”€â”€â”€â”¼â”€â”€â”€â”¼â”€â”€â”€â”¼â”€â”€â”€â”¼â”€â”€â”€â”¼â”€â”€â”€â”¼â”€â”€â”€â”¼â”€â”€â”€â”¤
 7 â”‚ â™™ â”‚   â”‚ â™™ â”‚ â™™ â”‚ â™™ â”‚   â”‚   â”‚ â™™ â”‚
   â”œâ”€â”€â”€â”¼â”€â”€â”€â”¼â”€â”€â”€â”¼â”€â”€â”€â”¼â”€â”€â”€â”¼â”€â”€â”€â”¼â”€â”€â”€â”¼â”€â”€â”€â”¤
 6 â”‚   â”‚ â™™ â”‚   â”‚   â”‚   â”‚ â™™ â”‚   â”‚   â”‚
   â”œâ”€â”€â”€â”¼â”€â”€â”€â”¼â”€â”€â”€â”¼â”€â”€â”€â”¼â”€â”€â”€â”¼â”€â”€â”€â”¼â”€â”€â”€â”¼â”€â”€â”€â”¤
 5 â”‚   â”‚   â”‚   â”‚   â”‚   â”‚   â”‚ â™ â”‚   â”‚
   â”œâ”€â”€â”€â”¼â”€â”€â”€â”¼â”€â”€â”€â”¼â”€â”€â”€â”¼â”€â”€â”€â”¼â”€â”€â”€â”¼â”€â”€â”€â”¼â”€â”€â”€â”¤
 4 â”‚   â”‚   â”‚   â”‚   â”‚ â™Ÿ â”‚   â”‚   â”‚   â”‚
   â”œâ”€â”€â”€â”¼â”€â”€â”€â”¼â”€â”€â”€â”¼â”€â”€â”€â”¼â”€â”€â”€â”¼â”€â”€â”€â”¼â”€â”€â”€â”¼â”€â”€â”€â”¤
 3 â”‚   â”‚   â”‚ â™ â”‚   â”‚   â”‚   â”‚   â”‚   â”‚
   â”œâ”€â”€â”€â”¼â”€â”€â”€â”¼â”€â”€â”€â”¼â”€â”€â”€â”¼â”€â”€â”€â”¼â”€â”€â”€â”¼â”€â”€â”€â”¼â”€â”€â”€â”¤
 2 â”‚ â™Ÿ â”‚ â™Ÿ â”‚ â™Ÿ â”‚ â™Ÿ â”‚   â”‚ â™Ÿ â”‚ â™Ÿ â”‚ â™Ÿ â”‚
   â”œâ”€â”€â”€â”¼â”€â”€â”€â”¼â”€â”€â”€â”¼â”€â”€â”€â”¼â”€â”€â”€â”¼â”€â”€â”€â”¼â”€â”€â”€â”¼â”€â”€â”€â”¤
 1 â”‚ â™œ â”‚   â”‚ â™ â”‚ â™› â”‚ â™š â”‚ â™ â”‚   â”‚ â™œ â”‚
   â””â”€â”€â”€â”´â”€â”€â”€â”´â”€â”€â”€â”´â”€â”€â”€â”´â”€â”€â”€â”´â”€â”€â”€â”´â”€â”€â”€â”´â”€â”€â”€â”˜
     a   b   c   d   e   f   g   h
Error: Could not open file: "/data/julien/Pro/git/teaching/x/2024/Resources/openingBook.txt"
Depth: 1 Best move found: b8c6 Evaluation: 202 Nodes searched: 37 (Alpha Beta 4, Quiescence 33)
Depth: 2 Best move found: e7e6 Evaluation: -483 Nodes searched: 245 (Alpha Beta 43, Quiescence 202)
Depth: 3 Best move found: c8a6 Evaluation: -107 Nodes searched: 1258 (Alpha Beta 229, Quiescence 1029)
Depth: 4 Best move found: f6g5 Evaluation: -181 Nodes searched: 2503 (Alpha Beta 781, Quiescence 1722)
Depth: 5 Best move found: f6g5 Evaluation: -133 Nodes searched: 34941 (Alpha Beta 8482, Quiescence 26459)
Depth: 6 Best move found: f6g5 Evaluation: -203 Nodes searched: 85481 (Alpha Beta 22525, Quiescence 62956)
Time Elapsed: 9905ms
[32;1m[Game] [0mPlayer's error code: 0
[32;1m[Game] [0mChecking move validity...
[32;1m[Board] [0mInitializing board...
[32;1m[Board] [0mLoading history file `championship/lizzie-iii-kean-chess-engine/history.csv`...
[32;1m[Board] [0mLoaded 7 move(s).
[32;1m[Board] [0mLoading move file `championship/lizzie-iii-kean-chess-engine/move.csv`...
[32;1m[Board] [0mBlack player is playing f6 to g5.
[32;1m[Board] [0m[5;1mBlack Pawn is taking White Knight.[0m
[32;1m[Board] [0m
[32;1m[Board] [0m    a b c d e f g h 
[32;1m[Board] [0m  -------------------
[32;1m[Board] [0m8 ||[30;1mr[0m|[30;1mk[0m|[30;1mb[0m|[30;1mQ[0m|[30;1mK[0m|[30;1mb[0m|[30;1mk[0m|[30;1mr[0m|| 8
[32;1m[Board] [0m  -------------------
[32;1m[Board] [0m7 ||[30;1mp[0m|[7;1m [0m|[30;1mp[0m|[30;1mp[0m|[30;1mp[0m|[7;1m [0m| |[30;1mp[0m|| 7
[32;1m[Board] [0m  -------------------
[32;1m[Board] [0m6 ||[7;1m [0m|[30;1mp[0m|[7;1m [0m| |[7;1m [0m| |[7;1m [0m| || 6
[32;1m[Board] [0m  -------------------
[32;1m[Board] [0m5 || |[7;1m [0m| |[7;1m [0m| |[7;1m [0m|[30;1mp[0m|[7;1m [0m|| 5
[32;1m[Board] [0m  -------------------
[32;1m[Board] [0m4 ||[7;1m [0m| |[7;1m [0m| |[0;1mp[0m| |[7;1m [0m| || 4
[32;1m[Board] [0m  -------------------
[32;1m[Board] [0m3 || |[7;1m [0m|[0;1mk[0m|[7;1m [0m| |[7;1m [0m| |[7;1m [0m|| 3
[32;1m[Board] [0m  -------------------
[32;1m[Board] [0m2 ||[0;1mp[0m|[0;1mp[0m|[0;1mp[0m|[0;1mp[0m|[7;1m [0m|[0;1mp[0m|[0;1mp[0m|[0;1mp[0m|| 2
[32;1m[Board] [0m  -------------------
[32;1m[Board] [0m1 ||[0;1mr[0m|[7;1m [0m|[0;1mb[0m|[0;1mQ[0m|[0;1mK[0m|[0;1mb[0m| |[0;1mr[0m|| 1
[32;1m[Board] [0m  -------------------
[32;1m[Board] [0m    a b c d e f g h
[32;1m[Board] [0m
[32;1m[Referee] [0mThis is the turn of the White player...
Input file: championship/lizzie-iii-kean-chess-engine/history.csv
Output file: championship/lizzie-iii-kean-chess-engine/move.csv
We are playing as White
8 | [1;31mR[0m [1;31mN[0m [1;31mB[0m [1;31mQ[0m [1;31mK[0m [1;31mB[0m [1;31mN[0m [1;31mR[0m 
7 | [1;31mP[0m [1;30m_[0m [1;31mP[0m [1;31mP[0m [1;31mP[0m [1;30m_[0m [1;30m_[0m [1;31mP[0m 
6 | [1;30m_[0m [1;31mP[0m [1;30m_[0m [1;30m_[0m [1;30m_[0m [1;30m_[0m [1;30m_[0m [1;30m_[0m 
5 | [1;30m_[0m [1;30m_[0m [1;30m_[0m [1;30m_[0m [1;30m_[0m [1;30m_[0m [1;31mP[0m [1;30m_[0m 
4 | [1;30m_[0m [1;30m_[0m [1;30m_[0m [1;30m_[0m [1;32mP[0m [1;30m_[0m [1;30m_[0m [1;30m_[0m 
3 | [1;30m_[0m [1;30m_[0m [1;32mN[0m [1;30m_[0m [1;30m_[0m [1;30m_[0m [1;30m_[0m [1;30m_[0m 
2 | [1;32mP[0m [1;32mP[0m [1;32mP[0m [1;32mP[0m [1;30m_[0m [1;32mP[0m [1;32mP[0m [1;32mP[0m 
1 | [1;32mR[0m [1;30m_[0m [1;32mB[0m [1;32mQ[0m [1;32mK[0m [1;32mB[0m [1;30m_[0m [1;32mR[0m 
-------------------
  | A B C D E F G H 

It is white's turn to play.
Times this board has been seen: 0
Best move: d1h5
Evaluation: 100000
[32;1m[Game] [0mPlayer's error code: 0
[32;1m[Game] [0mChecking move validity...
[32;1m[Board] [0mInitializing board...
[32;1m[Board] [0mLoading history file `championship/lizzie-iii-kean-chess-engine/history.csv`...
[32;1m[Board] [0mLoaded 8 move(s).
[32;1m[Board] [0mLoading move file `championship/lizzie-iii-kean-chess-engine/move.csv`...
[32;1m[Board] [0mWhite player is playing d1 to h5.
[32;1m[Board] [0m
[32;1m[Board] [0m    a b c d e f g h 
[32;1m[Board] [0m  -------------------
[32;1m[Board] [0m8 ||[30;1mr[0m|[30;1mk[0m|[30;1mb[0m|[30;1mQ[0m|[30;1mK[0m|[30;1mb[0m|[30;1mk[0m|[30;1mr[0m|| 8
[32;1m[Board] [0m  -------------------
[32;1m[Board] [0m7 ||[30;1mp[0m|[7;1m [0m|[30;1mp[0m|[30;1mp[0m|[30;1mp[0m|[7;1m [0m| |[30;1mp[0m|| 7
[32;1m[Board] [0m  -------------------
[32;1m[Board] [0m6 ||[7;1m [0m|[30;1mp[0m|[7;1m [0m| |[7;1m [0m| |[7;1m [0m| || 6
[32;1m[Board] [0m  -------------------
[32;1m[Board] [0m5 || |[7;1m [0m| |[7;1m [0m| |[7;1m [0m|[30;1mp[0m|[0;1mQ[0m|| 5
[32;1m[Board] [0m  -------------------
[32;1m[Board] [0m4 ||[7;1m [0m| |[7;1m [0m| |[0;1mp[0m| |[7;1m [0m| || 4
[32;1m[Board] [0m  -------------------
[32;1m[Board] [0m3 || |[7;1m [0m|[0;1mk[0m|[7;1m [0m| |[7;1m [0m| |[7;1m [0m|| 3
[32;1m[Board] [0m  -------------------
[32;1m[Board] [0m2 ||[0;1mp[0m|[0;1mp[0m|[0;1mp[0m|[0;1mp[0m|[7;1m [0m|[0;1mp[0m|[0;1mp[0m|[0;1mp[0m|| 2
[32;1m[Board] [0m  -------------------
[32;1m[Board] [0m1 ||[0;1mr[0m|[7;1m [0m|[0;1mb[0m|[7;1m [0m|[0;1mK[0m|[0;1mb[0m| |[0;1mr[0m|| 1
[32;1m[Board] [0m  -------------------
[32;1m[Board] [0m    a b c d e f g h
[32;1m[Board] [0m
[32;1m[Referee] [0mThis is the turn of the Black player...
[32;1m[Board] [0m[33;1m[WARNING][0m [5;1mBlack King in checkmate![0m
[32;1m[Board] [0m[33;1m[WARNING][0m The White player wins!
