[32;1m[Board] [0mInitializing board...
[32;1m[Board] [0m
[32;1m[Board] [0m    a b c d e f g h 
[32;1m[Board] [0m  -------------------
[32;1m[Board] [0m8 ||[30;1mr[0m|[30;1mk[0m|[30;1mb[0m|[30;1mQ[0m|[30;1mK[0m|[30;1mb[0m|[30;1mk[0m|[30;1mr[0m|| 8
[32;1m[Board] [0m  -------------------
[32;1m[Board] [0m7 ||[30;1mp[0m|[30;1mp[0m|[30;1mp[0m|[30;1mp[0m|[30;1mp[0m|[30;1mp[0m|[30;1mp[0m|[30;1mp[0m|| 7
[32;1m[Board] [0m  -------------------
[32;1m[Board] [0m6 ||[7;1m [0m| |[7;1m [0m| |[7;1m [0m| |[7;1m [0m| || 6
[32;1m[Board] [0m  -------------------
[32;1m[Board] [0m5 || |[7;1m [0m| |[7;1m [0m| |[7;1m [0m| |[7;1m [0m|| 5
[32;1m[Board] [0m  -------------------
[32;1m[Board] [0m4 ||[7;1m [0m| |[7;1m [0m| |[7;1m [0m| |[7;1m [0m| || 4
[32;1m[Board] [0m  -------------------
[32;1m[Board] [0m3 || |[7;1m [0m| |[7;1m [0m| |[7;1m [0m| |[7;1m [0m|| 3
[32;1m[Board] [0m  -------------------
[32;1m[Board] [0m2 ||[0;1mp[0m|[0;1mp[0m|[0;1mp[0m|[0;1mp[0m|[0;1mp[0m|[0;1mp[0m|[0;1mp[0m|[0;1mp[0m|| 2
[32;1m[Board] [0m  -------------------
[32;1m[Board] [0m1 ||[0;1mr[0m|[0;1mk[0m|[0;1mb[0m|[0;1mQ[0m|[0;1mK[0m|[0;1mb[0m|[0;1mk[0m|[0;1mr[0m|| 1
[32;1m[Board] [0m  -------------------
[32;1m[Board] [0m    a b c d e f g h
[32;1m[Board] [0m
[32;1m[Referee] [0mThis is the turn of the White player...
Input file: championship/lizzie-iii-knightmare/history.csv
Output file: championship/lizzie-iii-knightmare/move.csv
We are playing as White
Move history:
8 | R N B Q K B N R 
7 | P P P P P P P P 
6 | _ _ _ _ _ _ _ _ 
5 | _ _ _ _ _ _ _ _ 
4 | _ _ _ _ _ _ _ _ 
3 | _ _ _ _ _ _ _ _ 
2 | P P P P P P P P 
1 | R N B Q K B N R 
-------------------
  | A B C D E F G H 

It is white's turn to play.
AI's move: a2a4
Move written: a2a4
[32;1m[Game] [0mPlayer's error code: 0
[32;1m[Game] [0mChecking move validity...
[32;1m[Board] [0mInitializing board...
[32;1m[Board] [0mLoading history file `championship/lizzie-iii-knightmare/history.csv`...
[32;1m[Board] [0mLoaded 0 move(s).
[32;1m[Board] [0mLoading move file `championship/lizzie-iii-knightmare/move.csv`...
[32;1m[Board] [0mWhite player is playing a2 to a4.
[32;1m[Board] [0m
[32;1m[Board] [0m    a b c d e f g h 
[32;1m[Board] [0m  -------------------
[32;1m[Board] [0m8 ||[30;1mr[0m|[30;1mk[0m|[30;1mb[0m|[30;1mQ[0m|[30;1mK[0m|[30;1mb[0m|[30;1mk[0m|[30;1mr[0m|| 8
[32;1m[Board] [0m  -------------------
[32;1m[Board] [0m7 ||[30;1mp[0m|[30;1mp[0m|[30;1mp[0m|[30;1mp[0m|[30;1mp[0m|[30;1mp[0m|[30;1mp[0m|[30;1mp[0m|| 7
[32;1m[Board] [0m  -------------------
[32;1m[Board] [0m6 ||[7;1m [0m| |[7;1m [0m| |[7;1m [0m| |[7;1m [0m| || 6
[32;1m[Board] [0m  -------------------
[32;1m[Board] [0m5 || |[7;1m [0m| |[7;1m [0m| |[7;1m [0m| |[7;1m [0m|| 5
[32;1m[Board] [0m  -------------------
[32;1m[Board] [0m4 ||[0;1mp[0m| |[7;1m [0m| |[7;1m [0m| |[7;1m [0m| || 4
[32;1m[Board] [0m  -------------------
[32;1m[Board] [0m3 || |[7;1m [0m| |[7;1m [0m| |[7;1m [0m| |[7;1m [0m|| 3
[32;1m[Board] [0m  -------------------
[32;1m[Board] [0m2 ||[7;1m [0m|[0;1mp[0m|[0;1mp[0m|[0;1mp[0m|[0;1mp[0m|[0;1mp[0m|[0;1mp[0m|[0;1mp[0m|| 2
[32;1m[Board] [0m  -------------------
[32;1m[Board] [0m1 ||[0;1mr[0m|[0;1mk[0m|[0;1mb[0m|[0;1mQ[0m|[0;1mK[0m|[0;1mb[0m|[0;1mk[0m|[0;1mr[0m|| 1
[32;1m[Board] [0m  -------------------
[32;1m[Board] [0m    a b c d e f g h
[32;1m[Board] [0m
[32;1m[Referee] [0mThis is the turn of the Black player...
  A  B  C  D  E  F  G  H  
  ------------------------  
8|Rb|Nb|Bb|Qb|Kb|Bb|Nb|Rb|8
  ------------------------  
7|Pb|Pb|Pb|Pb|Pb|Pb|Pb|Pb|7
  ------------------------  
6|  |..|  |..|  |..|  |..|6
  ------------------------  
5|..|  |..|  |..|  |..|  |5
  ------------------------  
4|Pw|..|  |..|  |..|  |..|4
  ------------------------  
3|..|  |..|  |..|  |..|  |3
  ------------------------  
2|  |Pw|Pw|Pw|Pw|Pw|Pw|Pw|2
  ------------------------  
1|Rw|Nw|Bw|Qw|Kw|Bw|Nw|Rw|1
  ------------------------  
  A  B  C  D  E  F  G  H  

Checking opening: Alekhine Defense
Opening moves: e2e4 g8f6 
Checking opening: Caro-Kann Defense
Opening moves: e2e4 c7c6 
Checking opening: Catalan Opening
Opening moves: d2d4 g8f6 c2c4 e7e6 g2g3 
Checking opening: Colle System
Opening moves: d2d4 d7d5 g1f3 g8f6 e2e3 
Checking opening: French Defense
Opening moves: e2e4 e7e6 
Checking opening: Grünfeld Defense
Opening moves: d2d4 g8f6 c2c4 g7g6 b1c3 d7d5 
Checking opening: Italian Game
Opening moves: e2e4 e7e5 g1f3 b8c6 f1c4 
Checking opening: King's Gambit
Opening moves: e2e4 e7e5 f2f4 
Checking opening: King's Indian Defense
Opening moves: d2d4 g8f6 c2c4 g7g6 
Checking opening: London System
Opening moves: d2d4 d7d5 g1f3 g8f6 c1f4 
Checking opening: Nimzo-Indian Defense
Opening moves: d2d4 g8f6 c2c4 e7e6 b1c3 f8b4 
Checking opening: Petrov Defense
Opening moves: e2e4 e7e5 g1f3 g8f6 
Checking opening: Pirc Defense
Opening moves: e2e4 d7d6 
Checking opening: Queen's Gambit
Opening moves: d2d4 d7d5 c2c4 
Checking opening: Queen's Indian Defense
Opening moves: d2d4 g8f6 c2c4 e7e6 g2g3 b7b6 
Checking opening: Ruy Lopez
Opening moves: e2e4 e7e5 g1f3 b8c6 
Checking opening: Scotch Game
Opening moves: e2e4 e7e5 g1f3 b8c6 d2d4 
Checking opening: Sicilian Defense
Opening moves: e2e4 c7c5 
Checking opening: Slav Defense
Opening moves: d2d4 d7d5 c2c4 c7c6 
Checking opening: Vienna Game
Opening moves: e2e4 e7e5 b1c3 
No match found.
No opening detected. Falling back to random move.
chose from opening: c7c6
[32;1m[Game] [0mPlayer's error code: 0
[32;1m[Game] [0mChecking move validity...
[32;1m[Board] [0mInitializing board...
[32;1m[Board] [0mLoading history file `championship/lizzie-iii-knightmare/history.csv`...
[32;1m[Board] [0mLoaded 1 move(s).
[32;1m[Board] [0mLoading move file `championship/lizzie-iii-knightmare/move.csv`...
[32;1m[Board] [0mBlack player is playing c7 to c6.
[32;1m[Board] [0m
[32;1m[Board] [0m    a b c d e f g h 
[32;1m[Board] [0m  -------------------
[32;1m[Board] [0m8 ||[30;1mr[0m|[30;1mk[0m|[30;1mb[0m|[30;1mQ[0m|[30;1mK[0m|[30;1mb[0m|[30;1mk[0m|[30;1mr[0m|| 8
[32;1m[Board] [0m  -------------------
[32;1m[Board] [0m7 ||[30;1mp[0m|[30;1mp[0m| |[30;1mp[0m|[30;1mp[0m|[30;1mp[0m|[30;1mp[0m|[30;1mp[0m|| 7
[32;1m[Board] [0m  -------------------
[32;1m[Board] [0m6 ||[7;1m [0m| |[30;1mp[0m| |[7;1m [0m| |[7;1m [0m| || 6
[32;1m[Board] [0m  -------------------
[32;1m[Board] [0m5 || |[7;1m [0m| |[7;1m [0m| |[7;1m [0m| |[7;1m [0m|| 5
[32;1m[Board] [0m  -------------------
[32;1m[Board] [0m4 ||[0;1mp[0m| |[7;1m [0m| |[7;1m [0m| |[7;1m [0m| || 4
[32;1m[Board] [0m  -------------------
[32;1m[Board] [0m3 || |[7;1m [0m| |[7;1m [0m| |[7;1m [0m| |[7;1m [0m|| 3
[32;1m[Board] [0m  -------------------
[32;1m[Board] [0m2 ||[7;1m [0m|[0;1mp[0m|[0;1mp[0m|[0;1mp[0m|[0;1mp[0m|[0;1mp[0m|[0;1mp[0m|[0;1mp[0m|| 2
[32;1m[Board] [0m  -------------------
[32;1m[Board] [0m1 ||[0;1mr[0m|[0;1mk[0m|[0;1mb[0m|[0;1mQ[0m|[0;1mK[0m|[0;1mb[0m|[0;1mk[0m|[0;1mr[0m|| 1
[32;1m[Board] [0m  -------------------
[32;1m[Board] [0m    a b c d e f g h
[32;1m[Board] [0m
[32;1m[Referee] [0mThis is the turn of the White player...
Input file: championship/lizzie-iii-knightmare/history.csv
Output file: championship/lizzie-iii-knightmare/move.csv
Turn of: white
Succesful move
a2a4
8 | R N B Q K B N R 
7 | P P P P P P P P 
6 | _ _ _ _ _ _ _ _ 
5 | _ _ _ _ _ _ _ _ 
4 | P _ _ _ _ _ _ _ 
3 | _ _ _ _ _ _ _ _ 
2 | _ P P P P P P P 
1 | R N B Q K B N R 
-------------------
  | A B C D E F G H 

Turn of: black
Succesful move
c7c6
8 | R N B Q K B N R 
7 | P P _ P P P P P 
6 | _ _ P _ _ _ _ _ 
5 | _ _ _ _ _ _ _ _ 
4 | P _ _ _ _ _ _ _ 
3 | _ _ _ _ _ _ _ _ 
2 | _ P P P P P P P 
1 | R N B Q K B N R 
-------------------
  | A B C D E F G H 

We are playing as White
Move history:
a2a4
c7c6
8 | R N B Q K B N R 
7 | P P _ P P P P P 
6 | _ _ P _ _ _ _ _ 
5 | _ _ _ _ _ _ _ _ 
4 | P _ _ _ _ _ _ _ 
3 | _ _ _ _ _ _ _ _ 
2 | _ P P P P P P P 
1 | R N B Q K B N R 
-------------------
  | A B C D E F G H 

It is white's turn to play.
AI's move: b2b3
Move written: b2b3
[32;1m[Game] [0mPlayer's error code: 0
[32;1m[Game] [0mChecking move validity...
[32;1m[Board] [0mInitializing board...
[32;1m[Board] [0mLoading history file `championship/lizzie-iii-knightmare/history.csv`...
[32;1m[Board] [0mLoaded 2 move(s).
[32;1m[Board] [0mLoading move file `championship/lizzie-iii-knightmare/move.csv`...
[32;1m[Board] [0mWhite player is playing b2 to b3.
[32;1m[Board] [0m
[32;1m[Board] [0m    a b c d e f g h 
[32;1m[Board] [0m  -------------------
[32;1m[Board] [0m8 ||[30;1mr[0m|[30;1mk[0m|[30;1mb[0m|[30;1mQ[0m|[30;1mK[0m|[30;1mb[0m|[30;1mk[0m|[30;1mr[0m|| 8
[32;1m[Board] [0m  -------------------
[32;1m[Board] [0m7 ||[30;1mp[0m|[30;1mp[0m| |[30;1mp[0m|[30;1mp[0m|[30;1mp[0m|[30;1mp[0m|[30;1mp[0m|| 7
[32;1m[Board] [0m  -------------------
[32;1m[Board] [0m6 ||[7;1m [0m| |[30;1mp[0m| |[7;1m [0m| |[7;1m [0m| || 6
[32;1m[Board] [0m  -------------------
[32;1m[Board] [0m5 || |[7;1m [0m| |[7;1m [0m| |[7;1m [0m| |[7;1m [0m|| 5
[32;1m[Board] [0m  -------------------
[32;1m[Board] [0m4 ||[0;1mp[0m| |[7;1m [0m| |[7;1m [0m| |[7;1m [0m| || 4
[32;1m[Board] [0m  -------------------
[32;1m[Board] [0m3 || |[0;1mp[0m| |[7;1m [0m| |[7;1m [0m| |[7;1m [0m|| 3
[32;1m[Board] [0m  -------------------
[32;1m[Board] [0m2 ||[7;1m [0m| |[0;1mp[0m|[0;1mp[0m|[0;1mp[0m|[0;1mp[0m|[0;1mp[0m|[0;1mp[0m|| 2
[32;1m[Board] [0m  -------------------
[32;1m[Board] [0m1 ||[0;1mr[0m|[0;1mk[0m|[0;1mb[0m|[0;1mQ[0m|[0;1mK[0m|[0;1mb[0m|[0;1mk[0m|[0;1mr[0m|| 1
[32;1m[Board] [0m  -------------------
[32;1m[Board] [0m    a b c d e f g h
[32;1m[Board] [0m
[32;1m[Referee] [0mThis is the turn of the Black player...
  A  B  C  D  E  F  G  H  
  ------------------------  
8|Rb|Nb|Bb|Qb|Kb|Bb|Nb|Rb|8
  ------------------------  
7|Pb|Pb|..|Pb|Pb|Pb|Pb|Pb|7
  ------------------------  
6|  |..|Pb|..|  |..|  |..|6
  ------------------------  
5|..|  |..|  |..|  |..|  |5
  ------------------------  
4|Pw|..|  |..|  |..|  |..|4
  ------------------------  
3|..|Pw|..|  |..|  |..|  |3
  ------------------------  
2|  |..|Pw|Pw|Pw|Pw|Pw|Pw|2
  ------------------------  
1|Rw|Nw|Bw|Qw|Kw|Bw|Nw|Rw|1
  ------------------------  
  A  B  C  D  E  F  G  H  

Checking opening: Alekhine Defense
Opening moves: e2e4 g8f6 
Checking opening: Caro-Kann Defense
Opening moves: e2e4 c7c6 
Checking opening: Catalan Opening
Opening moves: d2d4 g8f6 c2c4 e7e6 g2g3 
Checking opening: Colle System
Opening moves: d2d4 d7d5 g1f3 g8f6 e2e3 
Checking opening: French Defense
Opening moves: e2e4 e7e6 
Checking opening: Grünfeld Defense
Opening moves: d2d4 g8f6 c2c4 g7g6 b1c3 d7d5 
Checking opening: Italian Game
Opening moves: e2e4 e7e5 g1f3 b8c6 f1c4 
Checking opening: King's Gambit
Opening moves: e2e4 e7e5 f2f4 
Checking opening: King's Indian Defense
Opening moves: d2d4 g8f6 c2c4 g7g6 
Checking opening: London System
Opening moves: d2d4 d7d5 g1f3 g8f6 c1f4 
Checking opening: Nimzo-Indian Defense
Opening moves: d2d4 g8f6 c2c4 e7e6 b1c3 f8b4 
Checking opening: Petrov Defense
Opening moves: e2e4 e7e5 g1f3 g8f6 
Checking opening: Pirc Defense
Opening moves: e2e4 d7d6 
Checking opening: Queen's Gambit
Opening moves: d2d4 d7d5 c2c4 
Checking opening: Queen's Indian Defense
Opening moves: d2d4 g8f6 c2c4 e7e6 g2g3 b7b6 
Checking opening: Ruy Lopez
Opening moves: e2e4 e7e5 g1f3 b8c6 
Checking opening: Scotch Game
Opening moves: e2e4 e7e5 g1f3 b8c6 d2d4 
Checking opening: Sicilian Defense
Opening moves: e2e4 c7c5 
Checking opening: Slav Defense
Opening moves: d2d4 d7d5 c2c4 c7c6 
Checking opening: Vienna Game
Opening moves: e2e4 e7e5 b1c3 
No match found.
No opening detected. Falling back to random move.
chose from opening: f7f5
[32;1m[Game] [0mPlayer's error code: 0
[32;1m[Game] [0mChecking move validity...
[32;1m[Board] [0mInitializing board...
[32;1m[Board] [0mLoading history file `championship/lizzie-iii-knightmare/history.csv`...
[32;1m[Board] [0mLoaded 3 move(s).
[32;1m[Board] [0mLoading move file `championship/lizzie-iii-knightmare/move.csv`...
[32;1m[Board] [0mBlack player is playing f7 to f5.
[32;1m[Board] [0m
[32;1m[Board] [0m    a b c d e f g h 
[32;1m[Board] [0m  -------------------
[32;1m[Board] [0m8 ||[30;1mr[0m|[30;1mk[0m|[30;1mb[0m|[30;1mQ[0m|[30;1mK[0m|[30;1mb[0m|[30;1mk[0m|[30;1mr[0m|| 8
[32;1m[Board] [0m  -------------------
[32;1m[Board] [0m7 ||[30;1mp[0m|[30;1mp[0m| |[30;1mp[0m|[30;1mp[0m|[7;1m [0m|[30;1mp[0m|[30;1mp[0m|| 7
[32;1m[Board] [0m  -------------------
[32;1m[Board] [0m6 ||[7;1m [0m| |[30;1mp[0m| |[7;1m [0m| |[7;1m [0m| || 6
[32;1m[Board] [0m  -------------------
[32;1m[Board] [0m5 || |[7;1m [0m| |[7;1m [0m| |[30;1mp[0m| |[7;1m [0m|| 5
[32;1m[Board] [0m  -------------------
[32;1m[Board] [0m4 ||[0;1mp[0m| |[7;1m [0m| |[7;1m [0m| |[7;1m [0m| || 4
[32;1m[Board] [0m  -------------------
[32;1m[Board] [0m3 || |[0;1mp[0m| |[7;1m [0m| |[7;1m [0m| |[7;1m [0m|| 3
[32;1m[Board] [0m  -------------------
[32;1m[Board] [0m2 ||[7;1m [0m| |[0;1mp[0m|[0;1mp[0m|[0;1mp[0m|[0;1mp[0m|[0;1mp[0m|[0;1mp[0m|| 2
[32;1m[Board] [0m  -------------------
[32;1m[Board] [0m1 ||[0;1mr[0m|[0;1mk[0m|[0;1mb[0m|[0;1mQ[0m|[0;1mK[0m|[0;1mb[0m|[0;1mk[0m|[0;1mr[0m|| 1
[32;1m[Board] [0m  -------------------
[32;1m[Board] [0m    a b c d e f g h
[32;1m[Board] [0m
[32;1m[Referee] [0mThis is the turn of the White player...
Input file: championship/lizzie-iii-knightmare/history.csv
Output file: championship/lizzie-iii-knightmare/move.csv
Turn of: white
Succesful move
a2a4
8 | R N B Q K B N R 
7 | P P P P P P P P 
6 | _ _ _ _ _ _ _ _ 
5 | _ _ _ _ _ _ _ _ 
4 | P _ _ _ _ _ _ _ 
3 | _ _ _ _ _ _ _ _ 
2 | _ P P P P P P P 
1 | R N B Q K B N R 
-------------------
  | A B C D E F G H 

Turn of: black
Succesful move
c7c6
8 | R N B Q K B N R 
7 | P P _ P P P P P 
6 | _ _ P _ _ _ _ _ 
5 | _ _ _ _ _ _ _ _ 
4 | P _ _ _ _ _ _ _ 
3 | _ _ _ _ _ _ _ _ 
2 | _ P P P P P P P 
1 | R N B Q K B N R 
-------------------
  | A B C D E F G H 

Turn of: white
Succesful move
b2b3
8 | R N B Q K B N R 
7 | P P _ P P P P P 
6 | _ _ P _ _ _ _ _ 
5 | _ _ _ _ _ _ _ _ 
4 | P _ _ _ _ _ _ _ 
3 | _ P _ _ _ _ _ _ 
2 | _ _ P P P P P P 
1 | R N B Q K B N R 
-------------------
  | A B C D E F G H 

Turn of: black
Succesful move
f7f5
8 | R N B Q K B N R 
7 | P P _ P P _ P P 
6 | _ _ P _ _ _ _ _ 
5 | _ _ _ _ _ P _ _ 
4 | P _ _ _ _ _ _ _ 
3 | _ P _ _ _ _ _ _ 
2 | _ _ P P P P P P 
1 | R N B Q K B N R 
-------------------
  | A B C D E F G H 

We are playing as White
Move history:
a2a4
c7c6
b2b3
f7f5
8 | R N B Q K B N R 
7 | P P _ P P _ P P 
6 | _ _ P _ _ _ _ _ 
5 | _ _ _ _ _ P _ _ 
4 | P _ _ _ _ _ _ _ 
3 | _ P _ _ _ _ _ _ 
2 | _ _ P P P P P P 
1 | R N B Q K B N R 
-------------------
  | A B C D E F G H 

It is white's turn to play.
AI's move: d2d3
Move written: d2d3
[32;1m[Game] [0mPlayer's error code: 0
[32;1m[Game] [0mChecking move validity...
[32;1m[Board] [0mInitializing board...
[32;1m[Board] [0mLoading history file `championship/lizzie-iii-knightmare/history.csv`...
[32;1m[Board] [0mLoaded 4 move(s).
[32;1m[Board] [0mLoading move file `championship/lizzie-iii-knightmare/move.csv`...
[32;1m[Board] [0mWhite player is playing d2 to d3.
[32;1m[Board] [0m
[32;1m[Board] [0m    a b c d e f g h 
[32;1m[Board] [0m  -------------------
[32;1m[Board] [0m8 ||[30;1mr[0m|[30;1mk[0m|[30;1mb[0m|[30;1mQ[0m|[30;1mK[0m|[30;1mb[0m|[30;1mk[0m|[30;1mr[0m|| 8
[32;1m[Board] [0m  -------------------
[32;1m[Board] [0m7 ||[30;1mp[0m|[30;1mp[0m| |[30;1mp[0m|[30;1mp[0m|[7;1m [0m|[30;1mp[0m|[30;1mp[0m|| 7
[32;1m[Board] [0m  -------------------
[32;1m[Board] [0m6 ||[7;1m [0m| |[30;1mp[0m| |[7;1m [0m| |[7;1m [0m| || 6
[32;1m[Board] [0m  -------------------
[32;1m[Board] [0m5 || |[7;1m [0m| |[7;1m [0m| |[30;1mp[0m| |[7;1m [0m|| 5
[32;1m[Board] [0m  -------------------
[32;1m[Board] [0m4 ||[0;1mp[0m| |[7;1m [0m| |[7;1m [0m| |[7;1m [0m| || 4
[32;1m[Board] [0m  -------------------
[32;1m[Board] [0m3 || |[0;1mp[0m| |[0;1mp[0m| |[7;1m [0m| |[7;1m [0m|| 3
[32;1m[Board] [0m  -------------------
[32;1m[Board] [0m2 ||[7;1m [0m| |[0;1mp[0m| |[0;1mp[0m|[0;1mp[0m|[0;1mp[0m|[0;1mp[0m|| 2
[32;1m[Board] [0m  -------------------
[32;1m[Board] [0m1 ||[0;1mr[0m|[0;1mk[0m|[0;1mb[0m|[0;1mQ[0m|[0;1mK[0m|[0;1mb[0m|[0;1mk[0m|[0;1mr[0m|| 1
[32;1m[Board] [0m  -------------------
[32;1m[Board] [0m    a b c d e f g h
[32;1m[Board] [0m
[32;1m[Referee] [0mThis is the turn of the Black player...
  A  B  C  D  E  F  G  H  
  ------------------------  
8|Rb|Nb|Bb|Qb|Kb|Bb|Nb|Rb|8
  ------------------------  
7|Pb|Pb|..|Pb|Pb|  |Pb|Pb|7
  ------------------------  
6|  |..|Pb|..|  |..|  |..|6
  ------------------------  
5|..|  |..|  |..|Pb|..|  |5
  ------------------------  
4|Pw|..|  |..|  |..|  |..|4
  ------------------------  
3|..|Pw|..|Pw|..|  |..|  |3
  ------------------------  
2|  |..|Pw|..|Pw|Pw|Pw|Pw|2
  ------------------------  
1|Rw|Nw|Bw|Qw|Kw|Bw|Nw|Rw|1
  ------------------------  
  A  B  C  D  E  F  G  H  

Checking opening: Alekhine Defense
Opening moves: e2e4 g8f6 
Checking opening: Caro-Kann Defense
Opening moves: e2e4 c7c6 
Checking opening: Catalan Opening
Opening moves: d2d4 g8f6 c2c4 e7e6 g2g3 
Checking opening: Colle System
Opening moves: d2d4 d7d5 g1f3 g8f6 e2e3 
Checking opening: French Defense
Opening moves: e2e4 e7e6 
Checking opening: Grünfeld Defense
Opening moves: d2d4 g8f6 c2c4 g7g6 b1c3 d7d5 
Checking opening: Italian Game
Opening moves: e2e4 e7e5 g1f3 b8c6 f1c4 
Checking opening: King's Gambit
Opening moves: e2e4 e7e5 f2f4 
Checking opening: King's Indian Defense
Opening moves: d2d4 g8f6 c2c4 g7g6 
Checking opening: London System
Opening moves: d2d4 d7d5 g1f3 g8f6 c1f4 
Checking opening: Nimzo-Indian Defense
Opening moves: d2d4 g8f6 c2c4 e7e6 b1c3 f8b4 
Checking opening: Petrov Defense
Opening moves: e2e4 e7e5 g1f3 g8f6 
Checking opening: Pirc Defense
Opening moves: e2e4 d7d6 
Checking opening: Queen's Gambit
Opening moves: d2d4 d7d5 c2c4 
Checking opening: Queen's Indian Defense
Opening moves: d2d4 g8f6 c2c4 e7e6 g2g3 b7b6 
Checking opening: Ruy Lopez
Opening moves: e2e4 e7e5 g1f3 b8c6 
Checking opening: Scotch Game
Opening moves: e2e4 e7e5 g1f3 b8c6 d2d4 
Checking opening: Sicilian Defense
Opening moves: e2e4 c7c5 
Checking opening: Slav Defense
Opening moves: d2d4 d7d5 c2c4 c7c6 
Checking opening: Vienna Game
Opening moves: e2e4 e7e5 b1c3 
No match found.
No opening detected. Falling back to random move.
chose from opening: g7g6
[32;1m[Game] [0mPlayer's error code: 0
[32;1m[Game] [0mChecking move validity...
[32;1m[Board] [0mInitializing board...
[32;1m[Board] [0mLoading history file `championship/lizzie-iii-knightmare/history.csv`...
[32;1m[Board] [0mLoaded 5 move(s).
[32;1m[Board] [0mLoading move file `championship/lizzie-iii-knightmare/move.csv`...
[32;1m[Board] [0mBlack player is playing g7 to g6.
[32;1m[Board] [0m
[32;1m[Board] [0m    a b c d e f g h 
[32;1m[Board] [0m  -------------------
[32;1m[Board] [0m8 ||[30;1mr[0m|[30;1mk[0m|[30;1mb[0m|[30;1mQ[0m|[30;1mK[0m|[30;1mb[0m|[30;1mk[0m|[30;1mr[0m|| 8
[32;1m[Board] [0m  -------------------
[32;1m[Board] [0m7 ||[30;1mp[0m|[30;1mp[0m| |[30;1mp[0m|[30;1mp[0m|[7;1m [0m| |[30;1mp[0m|| 7
[32;1m[Board] [0m  -------------------
[32;1m[Board] [0m6 ||[7;1m [0m| |[30;1mp[0m| |[7;1m [0m| |[30;1mp[0m| || 6
[32;1m[Board] [0m  -------------------
[32;1m[Board] [0m5 || |[7;1m [0m| |[7;1m [0m| |[30;1mp[0m| |[7;1m [0m|| 5
[32;1m[Board] [0m  -------------------
[32;1m[Board] [0m4 ||[0;1mp[0m| |[7;1m [0m| |[7;1m [0m| |[7;1m [0m| || 4
[32;1m[Board] [0m  -------------------
[32;1m[Board] [0m3 || |[0;1mp[0m| |[0;1mp[0m| |[7;1m [0m| |[7;1m [0m|| 3
[32;1m[Board] [0m  -------------------
[32;1m[Board] [0m2 ||[7;1m [0m| |[0;1mp[0m| |[0;1mp[0m|[0;1mp[0m|[0;1mp[0m|[0;1mp[0m|| 2
[32;1m[Board] [0m  -------------------
[32;1m[Board] [0m1 ||[0;1mr[0m|[0;1mk[0m|[0;1mb[0m|[0;1mQ[0m|[0;1mK[0m|[0;1mb[0m|[0;1mk[0m|[0;1mr[0m|| 1
[32;1m[Board] [0m  -------------------
[32;1m[Board] [0m    a b c d e f g h
[32;1m[Board] [0m
[32;1m[Referee] [0mThis is the turn of the White player...
Input file: championship/lizzie-iii-knightmare/history.csv
Output file: championship/lizzie-iii-knightmare/move.csv
Turn of: white
Succesful move
a2a4
8 | R N B Q K B N R 
7 | P P P P P P P P 
6 | _ _ _ _ _ _ _ _ 
5 | _ _ _ _ _ _ _ _ 
4 | P _ _ _ _ _ _ _ 
3 | _ _ _ _ _ _ _ _ 
2 | _ P P P P P P P 
1 | R N B Q K B N R 
-------------------
  | A B C D E F G H 

Turn of: black
Succesful move
c7c6
8 | R N B Q K B N R 
7 | P P _ P P P P P 
6 | _ _ P _ _ _ _ _ 
5 | _ _ _ _ _ _ _ _ 
4 | P _ _ _ _ _ _ _ 
3 | _ _ _ _ _ _ _ _ 
2 | _ P P P P P P P 
1 | R N B Q K B N R 
-------------------
  | A B C D E F G H 

Turn of: white
Succesful move
b2b3
8 | R N B Q K B N R 
7 | P P _ P P P P P 
6 | _ _ P _ _ _ _ _ 
5 | _ _ _ _ _ _ _ _ 
4 | P _ _ _ _ _ _ _ 
3 | _ P _ _ _ _ _ _ 
2 | _ _ P P P P P P 
1 | R N B Q K B N R 
-------------------
  | A B C D E F G H 

Turn of: black
Succesful move
f7f5
8 | R N B Q K B N R 
7 | P P _ P P _ P P 
6 | _ _ P _ _ _ _ _ 
5 | _ _ _ _ _ P _ _ 
4 | P _ _ _ _ _ _ _ 
3 | _ P _ _ _ _ _ _ 
2 | _ _ P P P P P P 
1 | R N B Q K B N R 
-------------------
  | A B C D E F G H 

Turn of: white
Succesful move
d2d3
8 | R N B Q K B N R 
7 | P P _ P P _ P P 
6 | _ _ P _ _ _ _ _ 
5 | _ _ _ _ _ P _ _ 
4 | P _ _ _ _ _ _ _ 
3 | _ P _ P _ _ _ _ 
2 | _ _ P _ P P P P 
1 | R N B Q K B N R 
-------------------
  | A B C D E F G H 

Turn of: black
Succesful move
g7g6
8 | R N B Q K B N R 
7 | P P _ P P _ _ P 
6 | _ _ P _ _ _ P _ 
5 | _ _ _ _ _ P _ _ 
4 | P _ _ _ _ _ _ _ 
3 | _ P _ P _ _ _ _ 
2 | _ _ P _ P P P P 
1 | R N B Q K B N R 
-------------------
  | A B C D E F G H 

We are playing as White
Move history:
a2a4
c7c6
b2b3
f7f5
d2d3
g7g6
8 | R N B Q K B N R 
7 | P P _ P P _ _ P 
6 | _ _ P _ _ _ P _ 
5 | _ _ _ _ _ P _ _ 
4 | P _ _ _ _ _ _ _ 
3 | _ P _ P _ _ _ _ 
2 | _ _ P _ P P P P 
1 | R N B Q K B N R 
-------------------
  | A B C D E F G H 

It is white's turn to play.
AI's move: e2e3
Move written: e2e3
[32;1m[Game] [0mPlayer's error code: 0
[32;1m[Game] [0mChecking move validity...
[32;1m[Board] [0mInitializing board...
[32;1m[Board] [0mLoading history file `championship/lizzie-iii-knightmare/history.csv`...
[32;1m[Board] [0mLoaded 6 move(s).
[32;1m[Board] [0mLoading move file `championship/lizzie-iii-knightmare/move.csv`...
[32;1m[Board] [0mWhite player is playing e2 to e3.
[32;1m[Board] [0m
[32;1m[Board] [0m    a b c d e f g h 
[32;1m[Board] [0m  -------------------
[32;1m[Board] [0m8 ||[30;1mr[0m|[30;1mk[0m|[30;1mb[0m|[30;1mQ[0m|[30;1mK[0m|[30;1mb[0m|[30;1mk[0m|[30;1mr[0m|| 8
[32;1m[Board] [0m  -------------------
[32;1m[Board] [0m7 ||[30;1mp[0m|[30;1mp[0m| |[30;1mp[0m|[30;1mp[0m|[7;1m [0m| |[30;1mp[0m|| 7
[32;1m[Board] [0m  -------------------
[32;1m[Board] [0m6 ||[7;1m [0m| |[30;1mp[0m| |[7;1m [0m| |[30;1mp[0m| || 6
[32;1m[Board] [0m  -------------------
[32;1m[Board] [0m5 || |[7;1m [0m| |[7;1m [0m| |[30;1mp[0m| |[7;1m [0m|| 5
[32;1m[Board] [0m  -------------------
[32;1m[Board] [0m4 ||[0;1mp[0m| |[7;1m [0m| |[7;1m [0m| |[7;1m [0m| || 4
[32;1m[Board] [0m  -------------------
[32;1m[Board] [0m3 || |[0;1mp[0m| |[0;1mp[0m|[0;1mp[0m|[7;1m [0m| |[7;1m [0m|| 3
[32;1m[Board] [0m  -------------------
[32;1m[Board] [0m2 ||[7;1m [0m| |[0;1mp[0m| |[7;1m [0m|[0;1mp[0m|[0;1mp[0m|[0;1mp[0m|| 2
[32;1m[Board] [0m  -------------------
[32;1m[Board] [0m1 ||[0;1mr[0m|[0;1mk[0m|[0;1mb[0m|[0;1mQ[0m|[0;1mK[0m|[0;1mb[0m|[0;1mk[0m|[0;1mr[0m|| 1
[32;1m[Board] [0m  -------------------
[32;1m[Board] [0m    a b c d e f g h
[32;1m[Board] [0m
[32;1m[Referee] [0mThis is the turn of the Black player...
  A  B  C  D  E  F  G  H  
  ------------------------  
8|Rb|Nb|Bb|Qb|Kb|Bb|Nb|Rb|8
  ------------------------  
7|Pb|Pb|..|Pb|Pb|  |..|Pb|7
  ------------------------  
6|  |..|Pb|..|  |..|Pb|..|6
  ------------------------  
5|..|  |..|  |..|Pb|..|  |5
  ------------------------  
4|Pw|..|  |..|  |..|  |..|4
  ------------------------  
3|..|Pw|..|Pw|Pw|  |..|  |3
  ------------------------  
2|  |..|Pw|..|  |Pw|Pw|Pw|2
  ------------------------  
1|Rw|Nw|Bw|Qw|Kw|Bw|Nw|Rw|1
  ------------------------  
  A  B  C  D  E  F  G  H  

chose best move: f5f4
[32;1m[Game] [0mPlayer's error code: 0
[32;1m[Game] [0mChecking move validity...
[32;1m[Board] [0mInitializing board...
[32;1m[Board] [0mLoading history file `championship/lizzie-iii-knightmare/history.csv`...
[32;1m[Board] [0mLoaded 7 move(s).
[32;1m[Board] [0mLoading move file `championship/lizzie-iii-knightmare/move.csv`...
[32;1m[Board] [0mBlack player is playing f5 to f4.
[32;1m[Board] [0m
[32;1m[Board] [0m    a b c d e f g h 
[32;1m[Board] [0m  -------------------
[32;1m[Board] [0m8 ||[30;1mr[0m|[30;1mk[0m|[30;1mb[0m|[30;1mQ[0m|[30;1mK[0m|[30;1mb[0m|[30;1mk[0m|[30;1mr[0m|| 8
[32;1m[Board] [0m  -------------------
[32;1m[Board] [0m7 ||[30;1mp[0m|[30;1mp[0m| |[30;1mp[0m|[30;1mp[0m|[7;1m [0m| |[30;1mp[0m|| 7
[32;1m[Board] [0m  -------------------
[32;1m[Board] [0m6 ||[7;1m [0m| |[30;1mp[0m| |[7;1m [0m| |[30;1mp[0m| || 6
[32;1m[Board] [0m  -------------------
[32;1m[Board] [0m5 || |[7;1m [0m| |[7;1m [0m| |[7;1m [0m| |[7;1m [0m|| 5
[32;1m[Board] [0m  -------------------
[32;1m[Board] [0m4 ||[0;1mp[0m| |[7;1m [0m| |[7;1m [0m|[30;1mp[0m|[7;1m [0m| || 4
[32;1m[Board] [0m  -------------------
[32;1m[Board] [0m3 || |[0;1mp[0m| |[0;1mp[0m|[0;1mp[0m|[7;1m [0m| |[7;1m [0m|| 3
[32;1m[Board] [0m  -------------------
[32;1m[Board] [0m2 ||[7;1m [0m| |[0;1mp[0m| |[7;1m [0m|[0;1mp[0m|[0;1mp[0m|[0;1mp[0m|| 2
[32;1m[Board] [0m  -------------------
[32;1m[Board] [0m1 ||[0;1mr[0m|[0;1mk[0m|[0;1mb[0m|[0;1mQ[0m|[0;1mK[0m|[0;1mb[0m|[0;1mk[0m|[0;1mr[0m|| 1
[32;1m[Board] [0m  -------------------
[32;1m[Board] [0m    a b c d e f g h
[32;1m[Board] [0m
[32;1m[Referee] [0mThis is the turn of the White player...
Input file: championship/lizzie-iii-knightmare/history.csv
Output file: championship/lizzie-iii-knightmare/move.csv
Turn of: white
Succesful move
a2a4
8 | R N B Q K B N R 
7 | P P P P P P P P 
6 | _ _ _ _ _ _ _ _ 
5 | _ _ _ _ _ _ _ _ 
4 | P _ _ _ _ _ _ _ 
3 | _ _ _ _ _ _ _ _ 
2 | _ P P P P P P P 
1 | R N B Q K B N R 
-------------------
  | A B C D E F G H 

Turn of: black
Succesful move
c7c6
8 | R N B Q K B N R 
7 | P P _ P P P P P 
6 | _ _ P _ _ _ _ _ 
5 | _ _ _ _ _ _ _ _ 
4 | P _ _ _ _ _ _ _ 
3 | _ _ _ _ _ _ _ _ 
2 | _ P P P P P P P 
1 | R N B Q K B N R 
-------------------
  | A B C D E F G H 

Turn of: white
Succesful move
b2b3
8 | R N B Q K B N R 
7 | P P _ P P P P P 
6 | _ _ P _ _ _ _ _ 
5 | _ _ _ _ _ _ _ _ 
4 | P _ _ _ _ _ _ _ 
3 | _ P _ _ _ _ _ _ 
2 | _ _ P P P P P P 
1 | R N B Q K B N R 
-------------------
  | A B C D E F G H 

Turn of: black
Succesful move
f7f5
8 | R N B Q K B N R 
7 | P P _ P P _ P P 
6 | _ _ P _ _ _ _ _ 
5 | _ _ _ _ _ P _ _ 
4 | P _ _ _ _ _ _ _ 
3 | _ P _ _ _ _ _ _ 
2 | _ _ P P P P P P 
1 | R N B Q K B N R 
-------------------
  | A B C D E F G H 

Turn of: white
Succesful move
d2d3
8 | R N B Q K B N R 
7 | P P _ P P _ P P 
6 | _ _ P _ _ _ _ _ 
5 | _ _ _ _ _ P _ _ 
4 | P _ _ _ _ _ _ _ 
3 | _ P _ P _ _ _ _ 
2 | _ _ P _ P P P P 
1 | R N B Q K B N R 
-------------------
  | A B C D E F G H 

Turn of: black
Succesful move
g7g6
8 | R N B Q K B N R 
7 | P P _ P P _ _ P 
6 | _ _ P _ _ _ P _ 
5 | _ _ _ _ _ P _ _ 
4 | P _ _ _ _ _ _ _ 
3 | _ P _ P _ _ _ _ 
2 | _ _ P _ P P P P 
1 | R N B Q K B N R 
-------------------
  | A B C D E F G H 

Turn of: white
Succesful move
e2e3
8 | R N B Q K B N R 
7 | P P _ P P _ _ P 
6 | _ _ P _ _ _ P _ 
5 | _ _ _ _ _ P _ _ 
4 | P _ _ _ _ _ _ _ 
3 | _ P _ P P _ _ _ 
2 | _ _ P _ _ P P P 
1 | R N B Q K B N R 
-------------------
  | A B C D E F G H 

Turn of: black
Succesful move
f5f4
8 | R N B Q K B N R 
7 | P P _ P P _ _ P 
6 | _ _ P _ _ _ P _ 
5 | _ _ _ _ _ _ _ _ 
4 | P _ _ _ _ P _ _ 
3 | _ P _ P P _ _ _ 
2 | _ _ P _ _ P P P 
1 | R N B Q K B N R 
-------------------
  | A B C D E F G H 

We are playing as White
Move history:
a2a4
c7c6
b2b3
f7f5
d2d3
g7g6
e2e3
f5f4
8 | R N B Q K B N R 
7 | P P _ P P _ _ P 
6 | _ _ P _ _ _ P _ 
5 | _ _ _ _ _ _ _ _ 
4 | P _ _ _ _ P _ _ 
3 | _ P _ P P _ _ _ 
2 | _ _ P _ _ P P P 
1 | R N B Q K B N R 
-------------------
  | A B C D E F G H 

It is white's turn to play.
AI's move: c1d2
Move written: c1d2
[32;1m[Game] [0mPlayer's error code: 0
[32;1m[Game] [0mChecking move validity...
[32;1m[Board] [0mInitializing board...
[32;1m[Board] [0mLoading history file `championship/lizzie-iii-knightmare/history.csv`...
[32;1m[Board] [0mLoaded 8 move(s).
[32;1m[Board] [0mLoading move file `championship/lizzie-iii-knightmare/move.csv`...
[32;1m[Board] [0mWhite player is playing c1 to d2.
[32;1m[Board] [0m
[32;1m[Board] [0m    a b c d e f g h 
[32;1m[Board] [0m  -------------------
[32;1m[Board] [0m8 ||[30;1mr[0m|[30;1mk[0m|[30;1mb[0m|[30;1mQ[0m|[30;1mK[0m|[30;1mb[0m|[30;1mk[0m|[30;1mr[0m|| 8
[32;1m[Board] [0m  -------------------
[32;1m[Board] [0m7 ||[30;1mp[0m|[30;1mp[0m| |[30;1mp[0m|[30;1mp[0m|[7;1m [0m| |[30;1mp[0m|| 7
[32;1m[Board] [0m  -------------------
[32;1m[Board] [0m6 ||[7;1m [0m| |[30;1mp[0m| |[7;1m [0m| |[30;1mp[0m| || 6
[32;1m[Board] [0m  -------------------
[32;1m[Board] [0m5 || |[7;1m [0m| |[7;1m [0m| |[7;1m [0m| |[7;1m [0m|| 5
[32;1m[Board] [0m  -------------------
[32;1m[Board] [0m4 ||[0;1mp[0m| |[7;1m [0m| |[7;1m [0m|[30;1mp[0m|[7;1m [0m| || 4
[32;1m[Board] [0m  -------------------
[32;1m[Board] [0m3 || |[0;1mp[0m| |[0;1mp[0m|[0;1mp[0m|[7;1m [0m| |[7;1m [0m|| 3
[32;1m[Board] [0m  -------------------
[32;1m[Board] [0m2 ||[7;1m [0m| |[0;1mp[0m|[0;1mb[0m|[7;1m [0m|[0;1mp[0m|[0;1mp[0m|[0;1mp[0m|| 2
[32;1m[Board] [0m  -------------------
[32;1m[Board] [0m1 ||[0;1mr[0m|[0;1mk[0m| |[0;1mQ[0m|[0;1mK[0m|[0;1mb[0m|[0;1mk[0m|[0;1mr[0m|| 1
[32;1m[Board] [0m  -------------------
[32;1m[Board] [0m    a b c d e f g h
[32;1m[Board] [0m
[32;1m[Referee] [0mThis is the turn of the Black player...
  A  B  C  D  E  F  G  H  
  ------------------------  
8|Rb|Nb|Bb|Qb|Kb|Bb|Nb|Rb|8
  ------------------------  
7|Pb|Pb|..|Pb|Pb|  |..|Pb|7
  ------------------------  
6|  |..|Pb|..|  |..|Pb|..|6
  ------------------------  
5|..|  |..|  |..|  |..|  |5
  ------------------------  
4|Pw|..|  |..|  |Pb|  |..|4
  ------------------------  
3|..|Pw|..|Pw|Pw|  |..|  |3
  ------------------------  
2|  |..|Pw|Bw|  |Pw|Pw|Pw|2
  ------------------------  
1|Rw|Nw|..|Qw|Kw|Bw|Nw|Rw|1
  ------------------------  
  A  B  C  D  E  F  G  H  

chose best move: f4e3
[32;1m[Game] [0mPlayer's error code: 0
[32;1m[Game] [0mChecking move validity...
[32;1m[Board] [0mInitializing board...
[32;1m[Board] [0mLoading history file `championship/lizzie-iii-knightmare/history.csv`...
[32;1m[Board] [0mLoaded 9 move(s).
[32;1m[Board] [0mLoading move file `championship/lizzie-iii-knightmare/move.csv`...
[32;1m[Board] [0mBlack player is playing f4 to e3.
[32;1m[Board] [0m[5;1mBlack Pawn is taking White Pawn.[0m
[32;1m[Board] [0m
[32;1m[Board] [0m    a b c d e f g h 
[32;1m[Board] [0m  -------------------
[32;1m[Board] [0m8 ||[30;1mr[0m|[30;1mk[0m|[30;1mb[0m|[30;1mQ[0m|[30;1mK[0m|[30;1mb[0m|[30;1mk[0m|[30;1mr[0m|| 8
[32;1m[Board] [0m  -------------------
[32;1m[Board] [0m7 ||[30;1mp[0m|[30;1mp[0m| |[30;1mp[0m|[30;1mp[0m|[7;1m [0m| |[30;1mp[0m|| 7
[32;1m[Board] [0m  -------------------
[32;1m[Board] [0m6 ||[7;1m [0m| |[30;1mp[0m| |[7;1m [0m| |[30;1mp[0m| || 6
[32;1m[Board] [0m  -------------------
[32;1m[Board] [0m5 || |[7;1m [0m| |[7;1m [0m| |[7;1m [0m| |[7;1m [0m|| 5
[32;1m[Board] [0m  -------------------
[32;1m[Board] [0m4 ||[0;1mp[0m| |[7;1m [0m| |[7;1m [0m| |[7;1m [0m| || 4
[32;1m[Board] [0m  -------------------
[32;1m[Board] [0m3 || |[0;1mp[0m| |[0;1mp[0m|[30;1mp[0m|[7;1m [0m| |[7;1m [0m|| 3
[32;1m[Board] [0m  -------------------
[32;1m[Board] [0m2 ||[7;1m [0m| |[0;1mp[0m|[0;1mb[0m|[7;1m [0m|[0;1mp[0m|[0;1mp[0m|[0;1mp[0m|| 2
[32;1m[Board] [0m  -------------------
[32;1m[Board] [0m1 ||[0;1mr[0m|[0;1mk[0m| |[0;1mQ[0m|[0;1mK[0m|[0;1mb[0m|[0;1mk[0m|[0;1mr[0m|| 1
[32;1m[Board] [0m  -------------------
[32;1m[Board] [0m    a b c d e f g h
[32;1m[Board] [0m
[32;1m[Referee] [0mThis is the turn of the White player...
Input file: championship/lizzie-iii-knightmare/history.csv
Output file: championship/lizzie-iii-knightmare/move.csv
Turn of: white
Succesful move
a2a4
8 | R N B Q K B N R 
7 | P P P P P P P P 
6 | _ _ _ _ _ _ _ _ 
5 | _ _ _ _ _ _ _ _ 
4 | P _ _ _ _ _ _ _ 
3 | _ _ _ _ _ _ _ _ 
2 | _ P P P P P P P 
1 | R N B Q K B N R 
-------------------
  | A B C D E F G H 

Turn of: black
Succesful move
c7c6
8 | R N B Q K B N R 
7 | P P _ P P P P P 
6 | _ _ P _ _ _ _ _ 
5 | _ _ _ _ _ _ _ _ 
4 | P _ _ _ _ _ _ _ 
3 | _ _ _ _ _ _ _ _ 
2 | _ P P P P P P P 
1 | R N B Q K B N R 
-------------------
  | A B C D E F G H 

Turn of: white
Succesful move
b2b3
8 | R N B Q K B N R 
7 | P P _ P P P P P 
6 | _ _ P _ _ _ _ _ 
5 | _ _ _ _ _ _ _ _ 
4 | P _ _ _ _ _ _ _ 
3 | _ P _ _ _ _ _ _ 
2 | _ _ P P P P P P 
1 | R N B Q K B N R 
-------------------
  | A B C D E F G H 

Turn of: black
Succesful move
f7f5
8 | R N B Q K B N R 
7 | P P _ P P _ P P 
6 | _ _ P _ _ _ _ _ 
5 | _ _ _ _ _ P _ _ 
4 | P _ _ _ _ _ _ _ 
3 | _ P _ _ _ _ _ _ 
2 | _ _ P P P P P P 
1 | R N B Q K B N R 
-------------------
  | A B C D E F G H 

Turn of: white
Succesful move
d2d3
8 | R N B Q K B N R 
7 | P P _ P P _ P P 
6 | _ _ P _ _ _ _ _ 
5 | _ _ _ _ _ P _ _ 
4 | P _ _ _ _ _ _ _ 
3 | _ P _ P _ _ _ _ 
2 | _ _ P _ P P P P 
1 | R N B Q K B N R 
-------------------
  | A B C D E F G H 

Turn of: black
Succesful move
g7g6
8 | R N B Q K B N R 
7 | P P _ P P _ _ P 
6 | _ _ P _ _ _ P _ 
5 | _ _ _ _ _ P _ _ 
4 | P _ _ _ _ _ _ _ 
3 | _ P _ P _ _ _ _ 
2 | _ _ P _ P P P P 
1 | R N B Q K B N R 
-------------------
  | A B C D E F G H 

Turn of: white
Succesful move
e2e3
8 | R N B Q K B N R 
7 | P P _ P P _ _ P 
6 | _ _ P _ _ _ P _ 
5 | _ _ _ _ _ P _ _ 
4 | P _ _ _ _ _ _ _ 
3 | _ P _ P P _ _ _ 
2 | _ _ P _ _ P P P 
1 | R N B Q K B N R 
-------------------
  | A B C D E F G H 

Turn of: black
Succesful move
f5f4
8 | R N B Q K B N R 
7 | P P _ P P _ _ P 
6 | _ _ P _ _ _ P _ 
5 | _ _ _ _ _ _ _ _ 
4 | P _ _ _ _ P _ _ 
3 | _ P _ P P _ _ _ 
2 | _ _ P _ _ P P P 
1 | R N B Q K B N R 
-------------------
  | A B C D E F G H 

Turn of: white
Succesful move
c1d2
8 | R N B Q K B N R 
7 | P P _ P P _ _ P 
6 | _ _ P _ _ _ P _ 
5 | _ _ _ _ _ _ _ _ 
4 | P _ _ _ _ P _ _ 
3 | _ P _ P P _ _ _ 
2 | _ _ P B _ P P P 
1 | R N _ Q K B N R 
-------------------
  | A B C D E F G H 

Turn of: black
Succesful move
f4e3
8 | R N B Q K B N R 
7 | P P _ P P _ _ P 
6 | _ _ P _ _ _ P _ 
5 | _ _ _ _ _ _ _ _ 
4 | P _ _ _ _ _ _ _ 
3 | _ P _ P P _ _ _ 
2 | _ _ P B _ P P P 
1 | R N _ Q K B N R 
-------------------
  | A B C D E F G H 

We are playing as White
Move history:
a2a4
c7c6
b2b3
f7f5
d2d3
g7g6
e2e3
f5f4
c1d2
f4e3
8 | R N B Q K B N R 
7 | P P _ P P _ _ P 
6 | _ _ P _ _ _ P _ 
5 | _ _ _ _ _ _ _ _ 
4 | P _ _ _ _ _ _ _ 
3 | _ P _ P P _ _ _ 
2 | _ _ P B _ P P P 
1 | R N _ Q K B N R 
-------------------
  | A B C D E F G H 

It is white's turn to play.
AI's move: a1a2
Move written: a1a2
[32;1m[Game] [0mPlayer's error code: 0
[32;1m[Game] [0mChecking move validity...
[32;1m[Board] [0mInitializing board...
[32;1m[Board] [0mLoading history file `championship/lizzie-iii-knightmare/history.csv`...
[32;1m[Board] [0mLoaded 10 move(s).
[32;1m[Board] [0mLoading move file `championship/lizzie-iii-knightmare/move.csv`...
[32;1m[Board] [0mWhite player is playing a1 to a2.
[32;1m[Board] [0m
[32;1m[Board] [0m    a b c d e f g h 
[32;1m[Board] [0m  -------------------
[32;1m[Board] [0m8 ||[30;1mr[0m|[30;1mk[0m|[30;1mb[0m|[30;1mQ[0m|[30;1mK[0m|[30;1mb[0m|[30;1mk[0m|[30;1mr[0m|| 8
[32;1m[Board] [0m  -------------------
[32;1m[Board] [0m7 ||[30;1mp[0m|[30;1mp[0m| |[30;1mp[0m|[30;1mp[0m|[7;1m [0m| |[30;1mp[0m|| 7
[32;1m[Board] [0m  -------------------
[32;1m[Board] [0m6 ||[7;1m [0m| |[30;1mp[0m| |[7;1m [0m| |[30;1mp[0m| || 6
[32;1m[Board] [0m  -------------------
[32;1m[Board] [0m5 || |[7;1m [0m| |[7;1m [0m| |[7;1m [0m| |[7;1m [0m|| 5
[32;1m[Board] [0m  -------------------
[32;1m[Board] [0m4 ||[0;1mp[0m| |[7;1m [0m| |[7;1m [0m| |[7;1m [0m| || 4
[32;1m[Board] [0m  -------------------
[32;1m[Board] [0m3 || |[0;1mp[0m| |[0;1mp[0m|[30;1mp[0m|[7;1m [0m| |[7;1m [0m|| 3
[32;1m[Board] [0m  -------------------
[32;1m[Board] [0m2 ||[0;1mr[0m| |[0;1mp[0m|[0;1mb[0m|[7;1m [0m|[0;1mp[0m|[0;1mp[0m|[0;1mp[0m|| 2
[32;1m[Board] [0m  -------------------
[32;1m[Board] [0m1 || |[0;1mk[0m| |[0;1mQ[0m|[0;1mK[0m|[0;1mb[0m|[0;1mk[0m|[0;1mr[0m|| 1
[32;1m[Board] [0m  -------------------
[32;1m[Board] [0m    a b c d e f g h
[32;1m[Board] [0m
[32;1m[Referee] [0mThis is the turn of the Black player...
  A  B  C  D  E  F  G  H  
  ------------------------  
8|Rb|Nb|Bb|Qb|Kb|Bb|Nb|Rb|8
  ------------------------  
7|Pb|Pb|..|Pb|Pb|  |..|Pb|7
  ------------------------  
6|  |..|Pb|..|  |..|Pb|..|6
  ------------------------  
5|..|  |..|  |..|  |..|  |5
  ------------------------  
4|Pw|..|  |..|  |..|  |..|4
  ------------------------  
3|..|Pw|..|Pw|Pb|  |..|  |3
  ------------------------  
2|Rw|..|Pw|Bw|  |Pw|Pw|Pw|2
  ------------------------  
1|..|Nw|..|Qw|Kw|Bw|Nw|Rw|1
  ------------------------  
  A  B  C  D  E  F  G  H  

chose best move: e3f2
[32;1m[Game] [0mPlayer's error code: 0
[32;1m[Game] [0mChecking move validity...
[32;1m[Board] [0mInitializing board...
[32;1m[Board] [0mLoading history file `championship/lizzie-iii-knightmare/history.csv`...
[32;1m[Board] [0mLoaded 11 move(s).
[32;1m[Board] [0mLoading move file `championship/lizzie-iii-knightmare/move.csv`...
[32;1m[Board] [0mBlack player is playing e3 to f2.
[32;1m[Board] [0m[5;1mBlack Pawn is taking White Pawn.[0m
[32;1m[Board] [0m
[32;1m[Board] [0m    a b c d e f g h 
[32;1m[Board] [0m  -------------------
[32;1m[Board] [0m8 ||[30;1mr[0m|[30;1mk[0m|[30;1mb[0m|[30;1mQ[0m|[30;1mK[0m|[30;1mb[0m|[30;1mk[0m|[30;1mr[0m|| 8
[32;1m[Board] [0m  -------------------
[32;1m[Board] [0m7 ||[30;1mp[0m|[30;1mp[0m| |[30;1mp[0m|[30;1mp[0m|[7;1m [0m| |[30;1mp[0m|| 7
[32;1m[Board] [0m  -------------------
[32;1m[Board] [0m6 ||[7;1m [0m| |[30;1mp[0m| |[7;1m [0m| |[30;1mp[0m| || 6
[32;1m[Board] [0m  -------------------
[32;1m[Board] [0m5 || |[7;1m [0m| |[7;1m [0m| |[7;1m [0m| |[7;1m [0m|| 5
[32;1m[Board] [0m  -------------------
[32;1m[Board] [0m4 ||[0;1mp[0m| |[7;1m [0m| |[7;1m [0m| |[7;1m [0m| || 4
[32;1m[Board] [0m  -------------------
[32;1m[Board] [0m3 || |[0;1mp[0m| |[0;1mp[0m| |[7;1m [0m| |[7;1m [0m|| 3
[32;1m[Board] [0m  -------------------
[32;1m[Board] [0m2 ||[0;1mr[0m| |[0;1mp[0m|[0;1mb[0m|[7;1m [0m|[30;1mp[0m|[0;1mp[0m|[0;1mp[0m|| 2
[32;1m[Board] [0m  -------------------
[32;1m[Board] [0m1 || |[0;1mk[0m| |[0;1mQ[0m|[0;1mK[0m|[0;1mb[0m|[0;1mk[0m|[0;1mr[0m|| 1
[32;1m[Board] [0m  -------------------
[32;1m[Board] [0m    a b c d e f g h
[32;1m[Board] [0m
[32;1m[Referee] [0mThis is the turn of the White player...
[32;1m[Board] [0m[33;1m[WARNING][0m [5;1mWhite King in check![0m
[32;1m[Board] [0m[33;1m[WARNING][0m    Threatened by Black Pawn (f2)
Input file: championship/lizzie-iii-knightmare/history.csv
Output file: championship/lizzie-iii-knightmare/move.csv
Turn of: white
Succesful move
a2a4
8 | R N B Q K B N R 
7 | P P P P P P P P 
6 | _ _ _ _ _ _ _ _ 
5 | _ _ _ _ _ _ _ _ 
4 | P _ _ _ _ _ _ _ 
3 | _ _ _ _ _ _ _ _ 
2 | _ P P P P P P P 
1 | R N B Q K B N R 
-------------------
  | A B C D E F G H 

Turn of: black
Succesful move
c7c6
8 | R N B Q K B N R 
7 | P P _ P P P P P 
6 | _ _ P _ _ _ _ _ 
5 | _ _ _ _ _ _ _ _ 
4 | P _ _ _ _ _ _ _ 
3 | _ _ _ _ _ _ _ _ 
2 | _ P P P P P P P 
1 | R N B Q K B N R 
-------------------
  | A B C D E F G H 

Turn of: white
Succesful move
b2b3
8 | R N B Q K B N R 
7 | P P _ P P P P P 
6 | _ _ P _ _ _ _ _ 
5 | _ _ _ _ _ _ _ _ 
4 | P _ _ _ _ _ _ _ 
3 | _ P _ _ _ _ _ _ 
2 | _ _ P P P P P P 
1 | R N B Q K B N R 
-------------------
  | A B C D E F G H 

Turn of: black
Succesful move
f7f5
8 | R N B Q K B N R 
7 | P P _ P P _ P P 
6 | _ _ P _ _ _ _ _ 
5 | _ _ _ _ _ P _ _ 
4 | P _ _ _ _ _ _ _ 
3 | _ P _ _ _ _ _ _ 
2 | _ _ P P P P P P 
1 | R N B Q K B N R 
-------------------
  | A B C D E F G H 

Turn of: white
Succesful move
d2d3
8 | R N B Q K B N R 
7 | P P _ P P _ P P 
6 | _ _ P _ _ _ _ _ 
5 | _ _ _ _ _ P _ _ 
4 | P _ _ _ _ _ _ _ 
3 | _ P _ P _ _ _ _ 
2 | _ _ P _ P P P P 
1 | R N B Q K B N R 
-------------------
  | A B C D E F G H 

Turn of: black
Succesful move
g7g6
8 | R N B Q K B N R 
7 | P P _ P P _ _ P 
6 | _ _ P _ _ _ P _ 
5 | _ _ _ _ _ P _ _ 
4 | P _ _ _ _ _ _ _ 
3 | _ P _ P _ _ _ _ 
2 | _ _ P _ P P P P 
1 | R N B Q K B N R 
-------------------
  | A B C D E F G H 

Turn of: white
Succesful move
e2e3
8 | R N B Q K B N R 
7 | P P _ P P _ _ P 
6 | _ _ P _ _ _ P _ 
5 | _ _ _ _ _ P _ _ 
4 | P _ _ _ _ _ _ _ 
3 | _ P _ P P _ _ _ 
2 | _ _ P _ _ P P P 
1 | R N B Q K B N R 
-------------------
  | A B C D E F G H 

Turn of: black
Succesful move
f5f4
8 | R N B Q K B N R 
7 | P P _ P P _ _ P 
6 | _ _ P _ _ _ P _ 
5 | _ _ _ _ _ _ _ _ 
4 | P _ _ _ _ P _ _ 
3 | _ P _ P P _ _ _ 
2 | _ _ P _ _ P P P 
1 | R N B Q K B N R 
-------------------
  | A B C D E F G H 

Turn of: white
Succesful move
c1d2
8 | R N B Q K B N R 
7 | P P _ P P _ _ P 
6 | _ _ P _ _ _ P _ 
5 | _ _ _ _ _ _ _ _ 
4 | P _ _ _ _ P _ _ 
3 | _ P _ P P _ _ _ 
2 | _ _ P B _ P P P 
1 | R N _ Q K B N R 
-------------------
  | A B C D E F G H 

Turn of: black
Succesful move
f4e3
8 | R N B Q K B N R 
7 | P P _ P P _ _ P 
6 | _ _ P _ _ _ P _ 
5 | _ _ _ _ _ _ _ _ 
4 | P _ _ _ _ _ _ _ 
3 | _ P _ P P _ _ _ 
2 | _ _ P B _ P P P 
1 | R N _ Q K B N R 
-------------------
  | A B C D E F G H 

Turn of: white
Succesful move
a1a2
8 | R N B Q K B N R 
7 | P P _ P P _ _ P 
6 | _ _ P _ _ _ P _ 
5 | _ _ _ _ _ _ _ _ 
4 | P _ _ _ _ _ _ _ 
3 | _ P _ P P _ _ _ 
2 | R _ P B _ P P P 
1 | _ N _ Q K B N R 
-------------------
  | A B C D E F G H 

Turn of: black
Succesful move
e3f2
8 | R N B Q K B N R 
7 | P P _ P P _ _ P 
6 | _ _ P _ _ _ P _ 
5 | _ _ _ _ _ _ _ _ 
4 | P _ _ _ _ _ _ _ 
3 | _ P _ P _ _ _ _ 
2 | R _ P B _ P P P 
1 | _ N _ Q K B N R 
-------------------
  | A B C D E F G H 

We are playing as White
Move history:
a2a4
c7c6
b2b3
f7f5
d2d3
g7g6
e2e3
f5f4
c1d2
f4e3
a1a2
e3f2
8 | R N B Q K B N R 
7 | P P _ P P _ _ P 
6 | _ _ P _ _ _ P _ 
5 | _ _ _ _ _ _ _ _ 
4 | P _ _ _ _ _ _ _ 
3 | _ P _ P _ _ _ _ 
2 | R _ P B _ P P P 
1 | _ N _ Q K B N R 
-------------------
  | A B C D E F G H 

It is white's turn to play.
AI's move: e1e2
Move written: e1e2
[32;1m[Game] [0mPlayer's error code: 0
[32;1m[Game] [0mChecking move validity...
[32;1m[Board] [0mInitializing board...
[32;1m[Board] [0mLoading history file `championship/lizzie-iii-knightmare/history.csv`...
[32;1m[Board] [0mLoaded 12 move(s).
[32;1m[Board] [0mLoading move file `championship/lizzie-iii-knightmare/move.csv`...
[32;1m[Board] [0mWhite player is playing e1 to e2.
[32;1m[Board] [0m
[32;1m[Board] [0m    a b c d e f g h 
[32;1m[Board] [0m  -------------------
[32;1m[Board] [0m8 ||[30;1mr[0m|[30;1mk[0m|[30;1mb[0m|[30;1mQ[0m|[30;1mK[0m|[30;1mb[0m|[30;1mk[0m|[30;1mr[0m|| 8
[32;1m[Board] [0m  -------------------
[32;1m[Board] [0m7 ||[30;1mp[0m|[30;1mp[0m| |[30;1mp[0m|[30;1mp[0m|[7;1m [0m| |[30;1mp[0m|| 7
[32;1m[Board] [0m  -------------------
[32;1m[Board] [0m6 ||[7;1m [0m| |[30;1mp[0m| |[7;1m [0m| |[30;1mp[0m| || 6
[32;1m[Board] [0m  -------------------
[32;1m[Board] [0m5 || |[7;1m [0m| |[7;1m [0m| |[7;1m [0m| |[7;1m [0m|| 5
[32;1m[Board] [0m  -------------------
[32;1m[Board] [0m4 ||[0;1mp[0m| |[7;1m [0m| |[7;1m [0m| |[7;1m [0m| || 4
[32;1m[Board] [0m  -------------------
[32;1m[Board] [0m3 || |[0;1mp[0m| |[0;1mp[0m| |[7;1m [0m| |[7;1m [0m|| 3
[32;1m[Board] [0m  -------------------
[32;1m[Board] [0m2 ||[0;1mr[0m| |[0;1mp[0m|[0;1mb[0m|[0;1mK[0m|[30;1mp[0m|[0;1mp[0m|[0;1mp[0m|| 2
[32;1m[Board] [0m  -------------------
[32;1m[Board] [0m1 || |[0;1mk[0m| |[0;1mQ[0m| |[0;1mb[0m|[0;1mk[0m|[0;1mr[0m|| 1
[32;1m[Board] [0m  -------------------
[32;1m[Board] [0m    a b c d e f g h
[32;1m[Board] [0m
[32;1m[Referee] [0mThis is the turn of the Black player...
  A  B  C  D  E  F  G  H  
  ------------------------  
8|Rb|Nb|Bb|Qb|Kb|Bb|Nb|Rb|8
  ------------------------  
7|Pb|Pb|..|Pb|Pb|  |..|Pb|7
  ------------------------  
6|  |..|Pb|..|  |..|Pb|..|6
  ------------------------  
5|..|  |..|  |..|  |..|  |5
  ------------------------  
4|Pw|..|  |..|  |..|  |..|4
  ------------------------  
3|..|Pw|..|Pw|..|  |..|  |3
  ------------------------  
2|Rw|..|Pw|Bw|Kw|Pb|Pw|Pw|2
  ------------------------  
1|..|Nw|..|Qw|..|Bw|Nw|Rw|1
  ------------------------  
  A  B  C  D  E  F  G  H  

chose best move: f2g1
[32;1m[Game] [0mPlayer's error code: 0
[32;1m[Game] [0mChecking move validity...
[32;1m[Board] [0mInitializing board...
[32;1m[Board] [0mLoading history file `championship/lizzie-iii-knightmare/history.csv`...
[32;1m[Board] [0mLoaded 13 move(s).
[32;1m[Board] [0mLoading move file `championship/lizzie-iii-knightmare/move.csv`...
[32;1m[Board] [0mBlack player is playing f2 to g1.
[32;1m[Board] [0m[5;1mBlack Pawn is taking White Knight.[0m
[32;1m[Board] [0mPromoting a Black Pawn into a Queen
[32;1m[Board] [0m
[32;1m[Board] [0m    a b c d e f g h 
[32;1m[Board] [0m  -------------------
[32;1m[Board] [0m8 ||[30;1mr[0m|[30;1mk[0m|[30;1mb[0m|[30;1mQ[0m|[30;1mK[0m|[30;1mb[0m|[30;1mk[0m|[30;1mr[0m|| 8
[32;1m[Board] [0m  -------------------
[32;1m[Board] [0m7 ||[30;1mp[0m|[30;1mp[0m| |[30;1mp[0m|[30;1mp[0m|[7;1m [0m| |[30;1mp[0m|| 7
[32;1m[Board] [0m  -------------------
[32;1m[Board] [0m6 ||[7;1m [0m| |[30;1mp[0m| |[7;1m [0m| |[30;1mp[0m| || 6
[32;1m[Board] [0m  -------------------
[32;1m[Board] [0m5 || |[7;1m [0m| |[7;1m [0m| |[7;1m [0m| |[7;1m [0m|| 5
[32;1m[Board] [0m  -------------------
[32;1m[Board] [0m4 ||[0;1mp[0m| |[7;1m [0m| |[7;1m [0m| |[7;1m [0m| || 4
[32;1m[Board] [0m  -------------------
[32;1m[Board] [0m3 || |[0;1mp[0m| |[0;1mp[0m| |[7;1m [0m| |[7;1m [0m|| 3
[32;1m[Board] [0m  -------------------
[32;1m[Board] [0m2 ||[0;1mr[0m| |[0;1mp[0m|[0;1mb[0m|[0;1mK[0m| |[0;1mp[0m|[0;1mp[0m|| 2
[32;1m[Board] [0m  -------------------
[32;1m[Board] [0m1 || |[0;1mk[0m| |[0;1mQ[0m| |[0;1mb[0m|[30;1mQ[0m|[0;1mr[0m|| 1
[32;1m[Board] [0m  -------------------
[32;1m[Board] [0m    a b c d e f g h
[32;1m[Board] [0m
[32;1m[Referee] [0mThis is the turn of the White player...
Input file: championship/lizzie-iii-knightmare/history.csv
Output file: championship/lizzie-iii-knightmare/move.csv
Turn of: white
Succesful move
a2a4
8 | R N B Q K B N R 
7 | P P P P P P P P 
6 | _ _ _ _ _ _ _ _ 
5 | _ _ _ _ _ _ _ _ 
4 | P _ _ _ _ _ _ _ 
3 | _ _ _ _ _ _ _ _ 
2 | _ P P P P P P P 
1 | R N B Q K B N R 
-------------------
  | A B C D E F G H 

Turn of: black
Succesful move
c7c6
8 | R N B Q K B N R 
7 | P P _ P P P P P 
6 | _ _ P _ _ _ _ _ 
5 | _ _ _ _ _ _ _ _ 
4 | P _ _ _ _ _ _ _ 
3 | _ _ _ _ _ _ _ _ 
2 | _ P P P P P P P 
1 | R N B Q K B N R 
-------------------
  | A B C D E F G H 

Turn of: white
Succesful move
b2b3
8 | R N B Q K B N R 
7 | P P _ P P P P P 
6 | _ _ P _ _ _ _ _ 
5 | _ _ _ _ _ _ _ _ 
4 | P _ _ _ _ _ _ _ 
3 | _ P _ _ _ _ _ _ 
2 | _ _ P P P P P P 
1 | R N B Q K B N R 
-------------------
  | A B C D E F G H 

Turn of: black
Succesful move
f7f5
8 | R N B Q K B N R 
7 | P P _ P P _ P P 
6 | _ _ P _ _ _ _ _ 
5 | _ _ _ _ _ P _ _ 
4 | P _ _ _ _ _ _ _ 
3 | _ P _ _ _ _ _ _ 
2 | _ _ P P P P P P 
1 | R N B Q K B N R 
-------------------
  | A B C D E F G H 

Turn of: white
Succesful move
d2d3
8 | R N B Q K B N R 
7 | P P _ P P _ P P 
6 | _ _ P _ _ _ _ _ 
5 | _ _ _ _ _ P _ _ 
4 | P _ _ _ _ _ _ _ 
3 | _ P _ P _ _ _ _ 
2 | _ _ P _ P P P P 
1 | R N B Q K B N R 
-------------------
  | A B C D E F G H 

Turn of: black
Succesful move
g7g6
8 | R N B Q K B N R 
7 | P P _ P P _ _ P 
6 | _ _ P _ _ _ P _ 
5 | _ _ _ _ _ P _ _ 
4 | P _ _ _ _ _ _ _ 
3 | _ P _ P _ _ _ _ 
2 | _ _ P _ P P P P 
1 | R N B Q K B N R 
-------------------
  | A B C D E F G H 

Turn of: white
Succesful move
e2e3
8 | R N B Q K B N R 
7 | P P _ P P _ _ P 
6 | _ _ P _ _ _ P _ 
5 | _ _ _ _ _ P _ _ 
4 | P _ _ _ _ _ _ _ 
3 | _ P _ P P _ _ _ 
2 | _ _ P _ _ P P P 
1 | R N B Q K B N R 
-------------------
  | A B C D E F G H 

Turn of: black
Succesful move
f5f4
8 | R N B Q K B N R 
7 | P P _ P P _ _ P 
6 | _ _ P _ _ _ P _ 
5 | _ _ _ _ _ _ _ _ 
4 | P _ _ _ _ P _ _ 
3 | _ P _ P P _ _ _ 
2 | _ _ P _ _ P P P 
1 | R N B Q K B N R 
-------------------
  | A B C D E F G H 

Turn of: white
Succesful move
c1d2
8 | R N B Q K B N R 
7 | P P _ P P _ _ P 
6 | _ _ P _ _ _ P _ 
5 | _ _ _ _ _ _ _ _ 
4 | P _ _ _ _ P _ _ 
3 | _ P _ P P _ _ _ 
2 | _ _ P B _ P P P 
1 | R N _ Q K B N R 
-------------------
  | A B C D E F G H 

Turn of: black
Succesful move
f4e3
8 | R N B Q K B N R 
7 | P P _ P P _ _ P 
6 | _ _ P _ _ _ P _ 
5 | _ _ _ _ _ _ _ _ 
4 | P _ _ _ _ _ _ _ 
3 | _ P _ P P _ _ _ 
2 | _ _ P B _ P P P 
1 | R N _ Q K B N R 
-------------------
  | A B C D E F G H 

Turn of: white
Succesful move
a1a2
8 | R N B Q K B N R 
7 | P P _ P P _ _ P 
6 | _ _ P _ _ _ P _ 
5 | _ _ _ _ _ _ _ _ 
4 | P _ _ _ _ _ _ _ 
3 | _ P _ P P _ _ _ 
2 | R _ P B _ P P P 
1 | _ N _ Q K B N R 
-------------------
  | A B C D E F G H 

Turn of: black
Succesful move
e3f2
8 | R N B Q K B N R 
7 | P P _ P P _ _ P 
6 | _ _ P _ _ _ P _ 
5 | _ _ _ _ _ _ _ _ 
4 | P _ _ _ _ _ _ _ 
3 | _ P _ P _ _ _ _ 
2 | R _ P B _ P P P 
1 | _ N _ Q K B N R 
-------------------
  | A B C D E F G H 

Turn of: white
Succesful move
e1e2
8 | R N B Q K B N R 
7 | P P _ P P _ _ P 
6 | _ _ P _ _ _ P _ 
5 | _ _ _ _ _ _ _ _ 
4 | P _ _ _ _ _ _ _ 
3 | _ P _ P _ _ _ _ 
2 | R _ P B K P P P 
1 | _ N _ Q _ B N R 
-------------------
  | A B C D E F G H 

Turn of: black
Succesful move
f2g1q
8 | R N B Q K B N R 
7 | P P _ P P _ _ P 
6 | _ _ P _ _ _ P _ 
5 | _ _ _ _ _ _ _ _ 
4 | P _ _ _ _ _ _ _ 
3 | _ P _ P _ _ _ _ 
2 | R _ P B K _ P P 
1 | _ N _ Q _ B Q R 
-------------------
  | A B C D E F G H 

We are playing as White
Move history:
a2a4
c7c6
b2b3
f7f5
d2d3
g7g6
e2e3
f5f4
c1d2
f4e3
a1a2
e3f2
e1e2
f2g1q
8 | R N B Q K B N R 
7 | P P _ P P _ _ P 
6 | _ _ P _ _ _ P _ 
5 | _ _ _ _ _ _ _ _ 
4 | P _ _ _ _ _ _ _ 
3 | _ P _ P _ _ _ _ 
2 | R _ P B K _ P P 
1 | _ N _ Q _ B Q R 
-------------------
  | A B C D E F G H 

It is white's turn to play.
AI's move: d2c1
Move written: d2c1
[32;1m[Game] [0mPlayer's error code: 0
[32;1m[Game] [0mChecking move validity...
[32;1m[Board] [0mInitializing board...
[32;1m[Board] [0mLoading history file `championship/lizzie-iii-knightmare/history.csv`...
[32;1m[Board] [0mLoaded 14 move(s).
[32;1m[Board] [0mLoading move file `championship/lizzie-iii-knightmare/move.csv`...
[32;1m[Board] [0mWhite player is playing d2 to c1.
[32;1m[Board] [0m
[32;1m[Board] [0m    a b c d e f g h 
[32;1m[Board] [0m  -------------------
[32;1m[Board] [0m8 ||[30;1mr[0m|[30;1mk[0m|[30;1mb[0m|[30;1mQ[0m|[30;1mK[0m|[30;1mb[0m|[30;1mk[0m|[30;1mr[0m|| 8
[32;1m[Board] [0m  -------------------
[32;1m[Board] [0m7 ||[30;1mp[0m|[30;1mp[0m| |[30;1mp[0m|[30;1mp[0m|[7;1m [0m| |[30;1mp[0m|| 7
[32;1m[Board] [0m  -------------------
[32;1m[Board] [0m6 ||[7;1m [0m| |[30;1mp[0m| |[7;1m [0m| |[30;1mp[0m| || 6
[32;1m[Board] [0m  -------------------
[32;1m[Board] [0m5 || |[7;1m [0m| |[7;1m [0m| |[7;1m [0m| |[7;1m [0m|| 5
[32;1m[Board] [0m  -------------------
[32;1m[Board] [0m4 ||[0;1mp[0m| |[7;1m [0m| |[7;1m [0m| |[7;1m [0m| || 4
[32;1m[Board] [0m  -------------------
[32;1m[Board] [0m3 || |[0;1mp[0m| |[0;1mp[0m| |[7;1m [0m| |[7;1m [0m|| 3
[32;1m[Board] [0m  -------------------
[32;1m[Board] [0m2 ||[0;1mr[0m| |[0;1mp[0m| |[0;1mK[0m| |[0;1mp[0m|[0;1mp[0m|| 2
[32;1m[Board] [0m  -------------------
[32;1m[Board] [0m1 || |[0;1mk[0m|[0;1mb[0m|[0;1mQ[0m| |[0;1mb[0m|[30;1mQ[0m|[0;1mr[0m|| 1
[32;1m[Board] [0m  -------------------
[32;1m[Board] [0m    a b c d e f g h
[32;1m[Board] [0m
[32;1m[Referee] [0mThis is the turn of the Black player...
  A  B  C  D  E  F  G  H  
  ------------------------  
8|Rb|Nb|Bb|Qb|Kb|Bb|Nb|Rb|8
  ------------------------  
7|Pb|Pb|..|Pb|Pb|  |..|Pb|7
  ------------------------  
6|  |..|Pb|..|  |..|Pb|..|6
  ------------------------  
5|..|  |..|  |..|  |..|  |5
  ------------------------  
4|Pw|..|  |..|  |..|  |..|4
  ------------------------  
3|..|Pw|..|Pw|..|  |..|  |3
  ------------------------  
2|Rw|..|Pw|..|Kw|..|Pw|Pw|2
  ------------------------  
1|..|Nw|Bw|Qw|..|Bw|Qb|Rw|1
  ------------------------  
  A  B  C  D  E  F  G  H  

chose best move: e8f7
[32;1m[Game] [0mPlayer's error code: 0
[32;1m[Game] [0mChecking move validity...
[32;1m[Board] [0mInitializing board...
[32;1m[Board] [0mLoading history file `championship/lizzie-iii-knightmare/history.csv`...
[32;1m[Board] [0mLoaded 15 move(s).
[32;1m[Board] [0mLoading move file `championship/lizzie-iii-knightmare/move.csv`...
[32;1m[Board] [0mBlack player is playing e8 to f7.
[32;1m[Board] [0m
[32;1m[Board] [0m    a b c d e f g h 
[32;1m[Board] [0m  -------------------
[32;1m[Board] [0m8 ||[30;1mr[0m|[30;1mk[0m|[30;1mb[0m|[30;1mQ[0m|[7;1m [0m|[30;1mb[0m|[30;1mk[0m|[30;1mr[0m|| 8
[32;1m[Board] [0m  -------------------
[32;1m[Board] [0m7 ||[30;1mp[0m|[30;1mp[0m| |[30;1mp[0m|[30;1mp[0m|[30;1mK[0m| |[30;1mp[0m|| 7
[32;1m[Board] [0m  -------------------
[32;1m[Board] [0m6 ||[7;1m [0m| |[30;1mp[0m| |[7;1m [0m| |[30;1mp[0m| || 6
[32;1m[Board] [0m  -------------------
[32;1m[Board] [0m5 || |[7;1m [0m| |[7;1m [0m| |[7;1m [0m| |[7;1m [0m|| 5
[32;1m[Board] [0m  -------------------
[32;1m[Board] [0m4 ||[0;1mp[0m| |[7;1m [0m| |[7;1m [0m| |[7;1m [0m| || 4
[32;1m[Board] [0m  -------------------
[32;1m[Board] [0m3 || |[0;1mp[0m| |[0;1mp[0m| |[7;1m [0m| |[7;1m [0m|| 3
[32;1m[Board] [0m  -------------------
[32;1m[Board] [0m2 ||[0;1mr[0m| |[0;1mp[0m| |[0;1mK[0m| |[0;1mp[0m|[0;1mp[0m|| 2
[32;1m[Board] [0m  -------------------
[32;1m[Board] [0m1 || |[0;1mk[0m|[0;1mb[0m|[0;1mQ[0m| |[0;1mb[0m|[30;1mQ[0m|[0;1mr[0m|| 1
[32;1m[Board] [0m  -------------------
[32;1m[Board] [0m    a b c d e f g h
[32;1m[Board] [0m
[32;1m[Referee] [0mThis is the turn of the White player...
Input file: championship/lizzie-iii-knightmare/history.csv
Output file: championship/lizzie-iii-knightmare/move.csv
Turn of: white
Succesful move
a2a4
8 | R N B Q K B N R 
7 | P P P P P P P P 
6 | _ _ _ _ _ _ _ _ 
5 | _ _ _ _ _ _ _ _ 
4 | P _ _ _ _ _ _ _ 
3 | _ _ _ _ _ _ _ _ 
2 | _ P P P P P P P 
1 | R N B Q K B N R 
-------------------
  | A B C D E F G H 

Turn of: black
Succesful move
c7c6
8 | R N B Q K B N R 
7 | P P _ P P P P P 
6 | _ _ P _ _ _ _ _ 
5 | _ _ _ _ _ _ _ _ 
4 | P _ _ _ _ _ _ _ 
3 | _ _ _ _ _ _ _ _ 
2 | _ P P P P P P P 
1 | R N B Q K B N R 
-------------------
  | A B C D E F G H 

Turn of: white
Succesful move
b2b3
8 | R N B Q K B N R 
7 | P P _ P P P P P 
6 | _ _ P _ _ _ _ _ 
5 | _ _ _ _ _ _ _ _ 
4 | P _ _ _ _ _ _ _ 
3 | _ P _ _ _ _ _ _ 
2 | _ _ P P P P P P 
1 | R N B Q K B N R 
-------------------
  | A B C D E F G H 

Turn of: black
Succesful move
f7f5
8 | R N B Q K B N R 
7 | P P _ P P _ P P 
6 | _ _ P _ _ _ _ _ 
5 | _ _ _ _ _ P _ _ 
4 | P _ _ _ _ _ _ _ 
3 | _ P _ _ _ _ _ _ 
2 | _ _ P P P P P P 
1 | R N B Q K B N R 
-------------------
  | A B C D E F G H 

Turn of: white
Succesful move
d2d3
8 | R N B Q K B N R 
7 | P P _ P P _ P P 
6 | _ _ P _ _ _ _ _ 
5 | _ _ _ _ _ P _ _ 
4 | P _ _ _ _ _ _ _ 
3 | _ P _ P _ _ _ _ 
2 | _ _ P _ P P P P 
1 | R N B Q K B N R 
-------------------
  | A B C D E F G H 

Turn of: black
Succesful move
g7g6
8 | R N B Q K B N R 
7 | P P _ P P _ _ P 
6 | _ _ P _ _ _ P _ 
5 | _ _ _ _ _ P _ _ 
4 | P _ _ _ _ _ _ _ 
3 | _ P _ P _ _ _ _ 
2 | _ _ P _ P P P P 
1 | R N B Q K B N R 
-------------------
  | A B C D E F G H 

Turn of: white
Succesful move
e2e3
8 | R N B Q K B N R 
7 | P P _ P P _ _ P 
6 | _ _ P _ _ _ P _ 
5 | _ _ _ _ _ P _ _ 
4 | P _ _ _ _ _ _ _ 
3 | _ P _ P P _ _ _ 
2 | _ _ P _ _ P P P 
1 | R N B Q K B N R 
-------------------
  | A B C D E F G H 

Turn of: black
Succesful move
f5f4
8 | R N B Q K B N R 
7 | P P _ P P _ _ P 
6 | _ _ P _ _ _ P _ 
5 | _ _ _ _ _ _ _ _ 
4 | P _ _ _ _ P _ _ 
3 | _ P _ P P _ _ _ 
2 | _ _ P _ _ P P P 
1 | R N B Q K B N R 
-------------------
  | A B C D E F G H 

Turn of: white
Succesful move
c1d2
8 | R N B Q K B N R 
7 | P P _ P P _ _ P 
6 | _ _ P _ _ _ P _ 
5 | _ _ _ _ _ _ _ _ 
4 | P _ _ _ _ P _ _ 
3 | _ P _ P P _ _ _ 
2 | _ _ P B _ P P P 
1 | R N _ Q K B N R 
-------------------
  | A B C D E F G H 

Turn of: black
Succesful move
f4e3
8 | R N B Q K B N R 
7 | P P _ P P _ _ P 
6 | _ _ P _ _ _ P _ 
5 | _ _ _ _ _ _ _ _ 
4 | P _ _ _ _ _ _ _ 
3 | _ P _ P P _ _ _ 
2 | _ _ P B _ P P P 
1 | R N _ Q K B N R 
-------------------
  | A B C D E F G H 

Turn of: white
Succesful move
a1a2
8 | R N B Q K B N R 
7 | P P _ P P _ _ P 
6 | _ _ P _ _ _ P _ 
5 | _ _ _ _ _ _ _ _ 
4 | P _ _ _ _ _ _ _ 
3 | _ P _ P P _ _ _ 
2 | R _ P B _ P P P 
1 | _ N _ Q K B N R 
-------------------
  | A B C D E F G H 

Turn of: black
Succesful move
e3f2
8 | R N B Q K B N R 
7 | P P _ P P _ _ P 
6 | _ _ P _ _ _ P _ 
5 | _ _ _ _ _ _ _ _ 
4 | P _ _ _ _ _ _ _ 
3 | _ P _ P _ _ _ _ 
2 | R _ P B _ P P P 
1 | _ N _ Q K B N R 
-------------------
  | A B C D E F G H 

Turn of: white
Succesful move
e1e2
8 | R N B Q K B N R 
7 | P P _ P P _ _ P 
6 | _ _ P _ _ _ P _ 
5 | _ _ _ _ _ _ _ _ 
4 | P _ _ _ _ _ _ _ 
3 | _ P _ P _ _ _ _ 
2 | R _ P B K P P P 
1 | _ N _ Q _ B N R 
-------------------
  | A B C D E F G H 

Turn of: black
Succesful move
f2g1q
8 | R N B Q K B N R 
7 | P P _ P P _ _ P 
6 | _ _ P _ _ _ P _ 
5 | _ _ _ _ _ _ _ _ 
4 | P _ _ _ _ _ _ _ 
3 | _ P _ P _ _ _ _ 
2 | R _ P B K _ P P 
1 | _ N _ Q _ B Q R 
-------------------
  | A B C D E F G H 

Turn of: white
Succesful move
d2c1
8 | R N B Q K B N R 
7 | P P _ P P _ _ P 
6 | _ _ P _ _ _ P _ 
5 | _ _ _ _ _ _ _ _ 
4 | P _ _ _ _ _ _ _ 
3 | _ P _ P _ _ _ _ 
2 | R _ P _ K _ P P 
1 | _ N B Q _ B Q R 
-------------------
  | A B C D E F G H 

Turn of: black
Succesful move
e8f7
8 | R N B Q _ B N R 
7 | P P _ P P K _ P 
6 | _ _ P _ _ _ P _ 
5 | _ _ _ _ _ _ _ _ 
4 | P _ _ _ _ _ _ _ 
3 | _ P _ P _ _ _ _ 
2 | R _ P _ K _ P P 
1 | _ N B Q _ B Q R 
-------------------
  | A B C D E F G H 

We are playing as White
Move history:
a2a4
c7c6
b2b3
f7f5
d2d3
g7g6
e2e3
f5f4
c1d2
f4e3
a1a2
e3f2
e1e2
f2g1q
d2c1
e8f7
8 | R N B Q _ B N R 
7 | P P _ P P K _ P 
6 | _ _ P _ _ _ P _ 
5 | _ _ _ _ _ _ _ _ 
4 | P _ _ _ _ _ _ _ 
3 | _ P _ P _ _ _ _ 
2 | R _ P _ K _ P P 
1 | _ N B Q _ B Q R 
-------------------
  | A B C D E F G H 

It is white's turn to play.
AI's move: g2g3
Move written: g2g3
[32;1m[Game] [0mPlayer's error code: 0
[32;1m[Game] [0mChecking move validity...
[32;1m[Board] [0mInitializing board...
[32;1m[Board] [0mLoading history file `championship/lizzie-iii-knightmare/history.csv`...
[32;1m[Board] [0mLoaded 16 move(s).
[32;1m[Board] [0mLoading move file `championship/lizzie-iii-knightmare/move.csv`...
[32;1m[Board] [0mWhite player is playing g2 to g3.
[32;1m[Board] [0m
[32;1m[Board] [0m    a b c d e f g h 
[32;1m[Board] [0m  -------------------
[32;1m[Board] [0m8 ||[30;1mr[0m|[30;1mk[0m|[30;1mb[0m|[30;1mQ[0m|[7;1m [0m|[30;1mb[0m|[30;1mk[0m|[30;1mr[0m|| 8
[32;1m[Board] [0m  -------------------
[32;1m[Board] [0m7 ||[30;1mp[0m|[30;1mp[0m| |[30;1mp[0m|[30;1mp[0m|[30;1mK[0m| |[30;1mp[0m|| 7
[32;1m[Board] [0m  -------------------
[32;1m[Board] [0m6 ||[7;1m [0m| |[30;1mp[0m| |[7;1m [0m| |[30;1mp[0m| || 6
[32;1m[Board] [0m  -------------------
[32;1m[Board] [0m5 || |[7;1m [0m| |[7;1m [0m| |[7;1m [0m| |[7;1m [0m|| 5
[32;1m[Board] [0m  -------------------
[32;1m[Board] [0m4 ||[0;1mp[0m| |[7;1m [0m| |[7;1m [0m| |[7;1m [0m| || 4
[32;1m[Board] [0m  -------------------
[32;1m[Board] [0m3 || |[0;1mp[0m| |[0;1mp[0m| |[7;1m [0m|[0;1mp[0m|[7;1m [0m|| 3
[32;1m[Board] [0m  -------------------
[32;1m[Board] [0m2 ||[0;1mr[0m| |[0;1mp[0m| |[0;1mK[0m| |[7;1m [0m|[0;1mp[0m|| 2
[32;1m[Board] [0m  -------------------
[32;1m[Board] [0m1 || |[0;1mk[0m|[0;1mb[0m|[0;1mQ[0m| |[0;1mb[0m|[30;1mQ[0m|[0;1mr[0m|| 1
[32;1m[Board] [0m  -------------------
[32;1m[Board] [0m    a b c d e f g h
[32;1m[Board] [0m
[32;1m[Referee] [0mThis is the turn of the Black player...
  A  B  C  D  E  F  G  H  
  ------------------------  
8|Rb|Nb|Bb|Qb|  |Bb|Nb|Rb|8
  ------------------------  
7|Pb|Pb|..|Pb|Pb|Kb|..|Pb|7
  ------------------------  
6|  |..|Pb|..|  |..|Pb|..|6
  ------------------------  
5|..|  |..|  |..|  |..|  |5
  ------------------------  
4|Pw|..|  |..|  |..|  |..|4
  ------------------------  
3|..|Pw|..|Pw|..|  |Pw|  |3
  ------------------------  
2|Rw|..|Pw|..|Kw|..|  |Pw|2
  ------------------------  
1|..|Nw|Bw|Qw|..|Bw|Qb|Rw|1
  ------------------------  
  A  B  C  D  E  F  G  H  

chose best move: f7e8
[32;1m[Game] [0mPlayer's error code: 0
[32;1m[Game] [0mChecking move validity...
[32;1m[Board] [0mInitializing board...
[32;1m[Board] [0mLoading history file `championship/lizzie-iii-knightmare/history.csv`...
[32;1m[Board] [0mLoaded 17 move(s).
[32;1m[Board] [0mLoading move file `championship/lizzie-iii-knightmare/move.csv`...
[32;1m[Board] [0mBlack player is playing f7 to e8.
[32;1m[Board] [0m
[32;1m[Board] [0m    a b c d e f g h 
[32;1m[Board] [0m  -------------------
[32;1m[Board] [0m8 ||[30;1mr[0m|[30;1mk[0m|[30;1mb[0m|[30;1mQ[0m|[30;1mK[0m|[30;1mb[0m|[30;1mk[0m|[30;1mr[0m|| 8
[32;1m[Board] [0m  -------------------
[32;1m[Board] [0m7 ||[30;1mp[0m|[30;1mp[0m| |[30;1mp[0m|[30;1mp[0m|[7;1m [0m| |[30;1mp[0m|| 7
[32;1m[Board] [0m  -------------------
[32;1m[Board] [0m6 ||[7;1m [0m| |[30;1mp[0m| |[7;1m [0m| |[30;1mp[0m| || 6
[32;1m[Board] [0m  -------------------
[32;1m[Board] [0m5 || |[7;1m [0m| |[7;1m [0m| |[7;1m [0m| |[7;1m [0m|| 5
[32;1m[Board] [0m  -------------------
[32;1m[Board] [0m4 ||[0;1mp[0m| |[7;1m [0m| |[7;1m [0m| |[7;1m [0m| || 4
[32;1m[Board] [0m  -------------------
[32;1m[Board] [0m3 || |[0;1mp[0m| |[0;1mp[0m| |[7;1m [0m|[0;1mp[0m|[7;1m [0m|| 3
[32;1m[Board] [0m  -------------------
[32;1m[Board] [0m2 ||[0;1mr[0m| |[0;1mp[0m| |[0;1mK[0m| |[7;1m [0m|[0;1mp[0m|| 2
[32;1m[Board] [0m  -------------------
[32;1m[Board] [0m1 || |[0;1mk[0m|[0;1mb[0m|[0;1mQ[0m| |[0;1mb[0m|[30;1mQ[0m|[0;1mr[0m|| 1
[32;1m[Board] [0m  -------------------
[32;1m[Board] [0m    a b c d e f g h
[32;1m[Board] [0m
[32;1m[Referee] [0mThis is the turn of the White player...
Input file: championship/lizzie-iii-knightmare/history.csv
Output file: championship/lizzie-iii-knightmare/move.csv
Turn of: white
Succesful move
a2a4
8 | R N B Q K B N R 
7 | P P P P P P P P 
6 | _ _ _ _ _ _ _ _ 
5 | _ _ _ _ _ _ _ _ 
4 | P _ _ _ _ _ _ _ 
3 | _ _ _ _ _ _ _ _ 
2 | _ P P P P P P P 
1 | R N B Q K B N R 
-------------------
  | A B C D E F G H 

Turn of: black
Succesful move
c7c6
8 | R N B Q K B N R 
7 | P P _ P P P P P 
6 | _ _ P _ _ _ _ _ 
5 | _ _ _ _ _ _ _ _ 
4 | P _ _ _ _ _ _ _ 
3 | _ _ _ _ _ _ _ _ 
2 | _ P P P P P P P 
1 | R N B Q K B N R 
-------------------
  | A B C D E F G H 

Turn of: white
Succesful move
b2b3
8 | R N B Q K B N R 
7 | P P _ P P P P P 
6 | _ _ P _ _ _ _ _ 
5 | _ _ _ _ _ _ _ _ 
4 | P _ _ _ _ _ _ _ 
3 | _ P _ _ _ _ _ _ 
2 | _ _ P P P P P P 
1 | R N B Q K B N R 
-------------------
  | A B C D E F G H 

Turn of: black
Succesful move
f7f5
8 | R N B Q K B N R 
7 | P P _ P P _ P P 
6 | _ _ P _ _ _ _ _ 
5 | _ _ _ _ _ P _ _ 
4 | P _ _ _ _ _ _ _ 
3 | _ P _ _ _ _ _ _ 
2 | _ _ P P P P P P 
1 | R N B Q K B N R 
-------------------
  | A B C D E F G H 

Turn of: white
Succesful move
d2d3
8 | R N B Q K B N R 
7 | P P _ P P _ P P 
6 | _ _ P _ _ _ _ _ 
5 | _ _ _ _ _ P _ _ 
4 | P _ _ _ _ _ _ _ 
3 | _ P _ P _ _ _ _ 
2 | _ _ P _ P P P P 
1 | R N B Q K B N R 
-------------------
  | A B C D E F G H 

Turn of: black
Succesful move
g7g6
8 | R N B Q K B N R 
7 | P P _ P P _ _ P 
6 | _ _ P _ _ _ P _ 
5 | _ _ _ _ _ P _ _ 
4 | P _ _ _ _ _ _ _ 
3 | _ P _ P _ _ _ _ 
2 | _ _ P _ P P P P 
1 | R N B Q K B N R 
-------------------
  | A B C D E F G H 

Turn of: white
Succesful move
e2e3
8 | R N B Q K B N R 
7 | P P _ P P _ _ P 
6 | _ _ P _ _ _ P _ 
5 | _ _ _ _ _ P _ _ 
4 | P _ _ _ _ _ _ _ 
3 | _ P _ P P _ _ _ 
2 | _ _ P _ _ P P P 
1 | R N B Q K B N R 
-------------------
  | A B C D E F G H 

Turn of: black
Succesful move
f5f4
8 | R N B Q K B N R 
7 | P P _ P P _ _ P 
6 | _ _ P _ _ _ P _ 
5 | _ _ _ _ _ _ _ _ 
4 | P _ _ _ _ P _ _ 
3 | _ P _ P P _ _ _ 
2 | _ _ P _ _ P P P 
1 | R N B Q K B N R 
-------------------
  | A B C D E F G H 

Turn of: white
Succesful move
c1d2
8 | R N B Q K B N R 
7 | P P _ P P _ _ P 
6 | _ _ P _ _ _ P _ 
5 | _ _ _ _ _ _ _ _ 
4 | P _ _ _ _ P _ _ 
3 | _ P _ P P _ _ _ 
2 | _ _ P B _ P P P 
1 | R N _ Q K B N R 
-------------------
  | A B C D E F G H 

Turn of: black
Succesful move
f4e3
8 | R N B Q K B N R 
7 | P P _ P P _ _ P 
6 | _ _ P _ _ _ P _ 
5 | _ _ _ _ _ _ _ _ 
4 | P _ _ _ _ _ _ _ 
3 | _ P _ P P _ _ _ 
2 | _ _ P B _ P P P 
1 | R N _ Q K B N R 
-------------------
  | A B C D E F G H 

Turn of: white
Succesful move
a1a2
8 | R N B Q K B N R 
7 | P P _ P P _ _ P 
6 | _ _ P _ _ _ P _ 
5 | _ _ _ _ _ _ _ _ 
4 | P _ _ _ _ _ _ _ 
3 | _ P _ P P _ _ _ 
2 | R _ P B _ P P P 
1 | _ N _ Q K B N R 
-------------------
  | A B C D E F G H 

Turn of: black
Succesful move
e3f2
8 | R N B Q K B N R 
7 | P P _ P P _ _ P 
6 | _ _ P _ _ _ P _ 
5 | _ _ _ _ _ _ _ _ 
4 | P _ _ _ _ _ _ _ 
3 | _ P _ P _ _ _ _ 
2 | R _ P B _ P P P 
1 | _ N _ Q K B N R 
-------------------
  | A B C D E F G H 

Turn of: white
Succesful move
e1e2
8 | R N B Q K B N R 
7 | P P _ P P _ _ P 
6 | _ _ P _ _ _ P _ 
5 | _ _ _ _ _ _ _ _ 
4 | P _ _ _ _ _ _ _ 
3 | _ P _ P _ _ _ _ 
2 | R _ P B K P P P 
1 | _ N _ Q _ B N R 
-------------------
  | A B C D E F G H 

Turn of: black
Succesful move
f2g1q
8 | R N B Q K B N R 
7 | P P _ P P _ _ P 
6 | _ _ P _ _ _ P _ 
5 | _ _ _ _ _ _ _ _ 
4 | P _ _ _ _ _ _ _ 
3 | _ P _ P _ _ _ _ 
2 | R _ P B K _ P P 
1 | _ N _ Q _ B Q R 
-------------------
  | A B C D E F G H 

Turn of: white
Succesful move
d2c1
8 | R N B Q K B N R 
7 | P P _ P P _ _ P 
6 | _ _ P _ _ _ P _ 
5 | _ _ _ _ _ _ _ _ 
4 | P _ _ _ _ _ _ _ 
3 | _ P _ P _ _ _ _ 
2 | R _ P _ K _ P P 
1 | _ N B Q _ B Q R 
-------------------
  | A B C D E F G H 

Turn of: black
Succesful move
e8f7
8 | R N B Q _ B N R 
7 | P P _ P P K _ P 
6 | _ _ P _ _ _ P _ 
5 | _ _ _ _ _ _ _ _ 
4 | P _ _ _ _ _ _ _ 
3 | _ P _ P _ _ _ _ 
2 | R _ P _ K _ P P 
1 | _ N B Q _ B Q R 
-------------------
  | A B C D E F G H 

Turn of: white
Succesful move
g2g3
8 | R N B Q _ B N R 
7 | P P _ P P K _ P 
6 | _ _ P _ _ _ P _ 
5 | _ _ _ _ _ _ _ _ 
4 | P _ _ _ _ _ _ _ 
3 | _ P _ P _ _ P _ 
2 | R _ P _ K _ _ P 
1 | _ N B Q _ B Q R 
-------------------
  | A B C D E F G H 

Turn of: black
Succesful move
f7e8
8 | R N B Q K B N R 
7 | P P _ P P _ _ P 
6 | _ _ P _ _ _ P _ 
5 | _ _ _ _ _ _ _ _ 
4 | P _ _ _ _ _ _ _ 
3 | _ P _ P _ _ P _ 
2 | R _ P _ K _ _ P 
1 | _ N B Q _ B Q R 
-------------------
  | A B C D E F G H 

We are playing as White
Move history:
a2a4
c7c6
b2b3
f7f5
d2d3
g7g6
e2e3
f5f4
c1d2
f4e3
a1a2
e3f2
e1e2
f2g1q
d2c1
e8f7
g2g3
f7e8
8 | R N B Q K B N R 
7 | P P _ P P _ _ P 
6 | _ _ P _ _ _ P _ 
5 | _ _ _ _ _ _ _ _ 
4 | P _ _ _ _ _ _ _ 
3 | _ P _ P _ _ P _ 
2 | R _ P _ K _ _ P 
1 | _ N B Q _ B Q R 
-------------------
  | A B C D E F G H 

It is white's turn to play.
AI's move: a2b2
Move written: a2b2
[32;1m[Game] [0mPlayer's error code: 0
[32;1m[Game] [0mChecking move validity...
[32;1m[Board] [0mInitializing board...
[32;1m[Board] [0mLoading history file `championship/lizzie-iii-knightmare/history.csv`...
[32;1m[Board] [0mLoaded 18 move(s).
[32;1m[Board] [0mLoading move file `championship/lizzie-iii-knightmare/move.csv`...
[32;1m[Board] [0mWhite player is playing a2 to b2.
[32;1m[Board] [0m
[32;1m[Board] [0m    a b c d e f g h 
[32;1m[Board] [0m  -------------------
[32;1m[Board] [0m8 ||[30;1mr[0m|[30;1mk[0m|[30;1mb[0m|[30;1mQ[0m|[30;1mK[0m|[30;1mb[0m|[30;1mk[0m|[30;1mr[0m|| 8
[32;1m[Board] [0m  -------------------
[32;1m[Board] [0m7 ||[30;1mp[0m|[30;1mp[0m| |[30;1mp[0m|[30;1mp[0m|[7;1m [0m| |[30;1mp[0m|| 7
[32;1m[Board] [0m  -------------------
[32;1m[Board] [0m6 ||[7;1m [0m| |[30;1mp[0m| |[7;1m [0m| |[30;1mp[0m| || 6
[32;1m[Board] [0m  -------------------
[32;1m[Board] [0m5 || |[7;1m [0m| |[7;1m [0m| |[7;1m [0m| |[7;1m [0m|| 5
[32;1m[Board] [0m  -------------------
[32;1m[Board] [0m4 ||[0;1mp[0m| |[7;1m [0m| |[7;1m [0m| |[7;1m [0m| || 4
[32;1m[Board] [0m  -------------------
[32;1m[Board] [0m3 || |[0;1mp[0m| |[0;1mp[0m| |[7;1m [0m|[0;1mp[0m|[7;1m [0m|| 3
[32;1m[Board] [0m  -------------------
[32;1m[Board] [0m2 ||[7;1m [0m|[0;1mr[0m|[0;1mp[0m| |[0;1mK[0m| |[7;1m [0m|[0;1mp[0m|| 2
[32;1m[Board] [0m  -------------------
[32;1m[Board] [0m1 || |[0;1mk[0m|[0;1mb[0m|[0;1mQ[0m| |[0;1mb[0m|[30;1mQ[0m|[0;1mr[0m|| 1
[32;1m[Board] [0m  -------------------
[32;1m[Board] [0m    a b c d e f g h
[32;1m[Board] [0m
[32;1m[Referee] [0mThis is the turn of the Black player...
  A  B  C  D  E  F  G  H  
  ------------------------  
8|Rb|Nb|Bb|Qb|Kb|Bb|Nb|Rb|8
  ------------------------  
7|Pb|Pb|..|Pb|Pb|  |..|Pb|7
  ------------------------  
6|  |..|Pb|..|  |..|Pb|..|6
  ------------------------  
5|..|  |..|  |..|  |..|  |5
  ------------------------  
4|Pw|..|  |..|  |..|  |..|4
  ------------------------  
3|..|Pw|..|Pw|..|  |Pw|  |3
  ------------------------  
2|  |Rw|Pw|..|Kw|..|  |Pw|2
  ------------------------  
1|..|Nw|Bw|Qw|..|Bw|Qb|Rw|1
  ------------------------  
  A  B  C  D  E  F  G  H  

chose best move: e8f7
[32;1m[Game] [0mPlayer's error code: 0
[32;1m[Game] [0mChecking move validity...
[32;1m[Board] [0mInitializing board...
[32;1m[Board] [0mLoading history file `championship/lizzie-iii-knightmare/history.csv`...
[32;1m[Board] [0mLoaded 19 move(s).
[32;1m[Board] [0mLoading move file `championship/lizzie-iii-knightmare/move.csv`...
[32;1m[Board] [0mBlack player is playing e8 to f7.
[32;1m[Board] [0m
[32;1m[Board] [0m    a b c d e f g h 
[32;1m[Board] [0m  -------------------
[32;1m[Board] [0m8 ||[30;1mr[0m|[30;1mk[0m|[30;1mb[0m|[30;1mQ[0m|[7;1m [0m|[30;1mb[0m|[30;1mk[0m|[30;1mr[0m|| 8
[32;1m[Board] [0m  -------------------
[32;1m[Board] [0m7 ||[30;1mp[0m|[30;1mp[0m| |[30;1mp[0m|[30;1mp[0m|[30;1mK[0m| |[30;1mp[0m|| 7
[32;1m[Board] [0m  -------------------
[32;1m[Board] [0m6 ||[7;1m [0m| |[30;1mp[0m| |[7;1m [0m| |[30;1mp[0m| || 6
[32;1m[Board] [0m  -------------------
[32;1m[Board] [0m5 || |[7;1m [0m| |[7;1m [0m| |[7;1m [0m| |[7;1m [0m|| 5
[32;1m[Board] [0m  -------------------
[32;1m[Board] [0m4 ||[0;1mp[0m| |[7;1m [0m| |[7;1m [0m| |[7;1m [0m| || 4
[32;1m[Board] [0m  -------------------
[32;1m[Board] [0m3 || |[0;1mp[0m| |[0;1mp[0m| |[7;1m [0m|[0;1mp[0m|[7;1m [0m|| 3
[32;1m[Board] [0m  -------------------
[32;1m[Board] [0m2 ||[7;1m [0m|[0;1mr[0m|[0;1mp[0m| |[0;1mK[0m| |[7;1m [0m|[0;1mp[0m|| 2
[32;1m[Board] [0m  -------------------
[32;1m[Board] [0m1 || |[0;1mk[0m|[0;1mb[0m|[0;1mQ[0m| |[0;1mb[0m|[30;1mQ[0m|[0;1mr[0m|| 1
[32;1m[Board] [0m  -------------------
[32;1m[Board] [0m    a b c d e f g h
[32;1m[Board] [0m
[32;1m[Referee] [0mThis is the turn of the White player...
Input file: championship/lizzie-iii-knightmare/history.csv
Output file: championship/lizzie-iii-knightmare/move.csv
Turn of: white
Succesful move
a2a4
8 | R N B Q K B N R 
7 | P P P P P P P P 
6 | _ _ _ _ _ _ _ _ 
5 | _ _ _ _ _ _ _ _ 
4 | P _ _ _ _ _ _ _ 
3 | _ _ _ _ _ _ _ _ 
2 | _ P P P P P P P 
1 | R N B Q K B N R 
-------------------
  | A B C D E F G H 

Turn of: black
Succesful move
c7c6
8 | R N B Q K B N R 
7 | P P _ P P P P P 
6 | _ _ P _ _ _ _ _ 
5 | _ _ _ _ _ _ _ _ 
4 | P _ _ _ _ _ _ _ 
3 | _ _ _ _ _ _ _ _ 
2 | _ P P P P P P P 
1 | R N B Q K B N R 
-------------------
  | A B C D E F G H 

Turn of: white
Succesful move
b2b3
8 | R N B Q K B N R 
7 | P P _ P P P P P 
6 | _ _ P _ _ _ _ _ 
5 | _ _ _ _ _ _ _ _ 
4 | P _ _ _ _ _ _ _ 
3 | _ P _ _ _ _ _ _ 
2 | _ _ P P P P P P 
1 | R N B Q K B N R 
-------------------
  | A B C D E F G H 

Turn of: black
Succesful move
f7f5
8 | R N B Q K B N R 
7 | P P _ P P _ P P 
6 | _ _ P _ _ _ _ _ 
5 | _ _ _ _ _ P _ _ 
4 | P _ _ _ _ _ _ _ 
3 | _ P _ _ _ _ _ _ 
2 | _ _ P P P P P P 
1 | R N B Q K B N R 
-------------------
  | A B C D E F G H 

Turn of: white
Succesful move
d2d3
8 | R N B Q K B N R 
7 | P P _ P P _ P P 
6 | _ _ P _ _ _ _ _ 
5 | _ _ _ _ _ P _ _ 
4 | P _ _ _ _ _ _ _ 
3 | _ P _ P _ _ _ _ 
2 | _ _ P _ P P P P 
1 | R N B Q K B N R 
-------------------
  | A B C D E F G H 

Turn of: black
Succesful move
g7g6
8 | R N B Q K B N R 
7 | P P _ P P _ _ P 
6 | _ _ P _ _ _ P _ 
5 | _ _ _ _ _ P _ _ 
4 | P _ _ _ _ _ _ _ 
3 | _ P _ P _ _ _ _ 
2 | _ _ P _ P P P P 
1 | R N B Q K B N R 
-------------------
  | A B C D E F G H 

Turn of: white
Succesful move
e2e3
8 | R N B Q K B N R 
7 | P P _ P P _ _ P 
6 | _ _ P _ _ _ P _ 
5 | _ _ _ _ _ P _ _ 
4 | P _ _ _ _ _ _ _ 
3 | _ P _ P P _ _ _ 
2 | _ _ P _ _ P P P 
1 | R N B Q K B N R 
-------------------
  | A B C D E F G H 

Turn of: black
Succesful move
f5f4
8 | R N B Q K B N R 
7 | P P _ P P _ _ P 
6 | _ _ P _ _ _ P _ 
5 | _ _ _ _ _ _ _ _ 
4 | P _ _ _ _ P _ _ 
3 | _ P _ P P _ _ _ 
2 | _ _ P _ _ P P P 
1 | R N B Q K B N R 
-------------------
  | A B C D E F G H 

Turn of: white
Succesful move
c1d2
8 | R N B Q K B N R 
7 | P P _ P P _ _ P 
6 | _ _ P _ _ _ P _ 
5 | _ _ _ _ _ _ _ _ 
4 | P _ _ _ _ P _ _ 
3 | _ P _ P P _ _ _ 
2 | _ _ P B _ P P P 
1 | R N _ Q K B N R 
-------------------
  | A B C D E F G H 

Turn of: black
Succesful move
f4e3
8 | R N B Q K B N R 
7 | P P _ P P _ _ P 
6 | _ _ P _ _ _ P _ 
5 | _ _ _ _ _ _ _ _ 
4 | P _ _ _ _ _ _ _ 
3 | _ P _ P P _ _ _ 
2 | _ _ P B _ P P P 
1 | R N _ Q K B N R 
-------------------
  | A B C D E F G H 

Turn of: white
Succesful move
a1a2
8 | R N B Q K B N R 
7 | P P _ P P _ _ P 
6 | _ _ P _ _ _ P _ 
5 | _ _ _ _ _ _ _ _ 
4 | P _ _ _ _ _ _ _ 
3 | _ P _ P P _ _ _ 
2 | R _ P B _ P P P 
1 | _ N _ Q K B N R 
-------------------
  | A B C D E F G H 

Turn of: black
Succesful move
e3f2
8 | R N B Q K B N R 
7 | P P _ P P _ _ P 
6 | _ _ P _ _ _ P _ 
5 | _ _ _ _ _ _ _ _ 
4 | P _ _ _ _ _ _ _ 
3 | _ P _ P _ _ _ _ 
2 | R _ P B _ P P P 
1 | _ N _ Q K B N R 
-------------------
  | A B C D E F G H 

Turn of: white
Succesful move
e1e2
8 | R N B Q K B N R 
7 | P P _ P P _ _ P 
6 | _ _ P _ _ _ P _ 
5 | _ _ _ _ _ _ _ _ 
4 | P _ _ _ _ _ _ _ 
3 | _ P _ P _ _ _ _ 
2 | R _ P B K P P P 
1 | _ N _ Q _ B N R 
-------------------
  | A B C D E F G H 

Turn of: black
Succesful move
f2g1q
8 | R N B Q K B N R 
7 | P P _ P P _ _ P 
6 | _ _ P _ _ _ P _ 
5 | _ _ _ _ _ _ _ _ 
4 | P _ _ _ _ _ _ _ 
3 | _ P _ P _ _ _ _ 
2 | R _ P B K _ P P 
1 | _ N _ Q _ B Q R 
-------------------
  | A B C D E F G H 

Turn of: white
Succesful move
d2c1
8 | R N B Q K B N R 
7 | P P _ P P _ _ P 
6 | _ _ P _ _ _ P _ 
5 | _ _ _ _ _ _ _ _ 
4 | P _ _ _ _ _ _ _ 
3 | _ P _ P _ _ _ _ 
2 | R _ P _ K _ P P 
1 | _ N B Q _ B Q R 
-------------------
  | A B C D E F G H 

Turn of: black
Succesful move
e8f7
8 | R N B Q _ B N R 
7 | P P _ P P K _ P 
6 | _ _ P _ _ _ P _ 
5 | _ _ _ _ _ _ _ _ 
4 | P _ _ _ _ _ _ _ 
3 | _ P _ P _ _ _ _ 
2 | R _ P _ K _ P P 
1 | _ N B Q _ B Q R 
-------------------
  | A B C D E F G H 

Turn of: white
Succesful move
g2g3
8 | R N B Q _ B N R 
7 | P P _ P P K _ P 
6 | _ _ P _ _ _ P _ 
5 | _ _ _ _ _ _ _ _ 
4 | P _ _ _ _ _ _ _ 
3 | _ P _ P _ _ P _ 
2 | R _ P _ K _ _ P 
1 | _ N B Q _ B Q R 
-------------------
  | A B C D E F G H 

Turn of: black
Succesful move
f7e8
8 | R N B Q K B N R 
7 | P P _ P P _ _ P 
6 | _ _ P _ _ _ P _ 
5 | _ _ _ _ _ _ _ _ 
4 | P _ _ _ _ _ _ _ 
3 | _ P _ P _ _ P _ 
2 | R _ P _ K _ _ P 
1 | _ N B Q _ B Q R 
-------------------
  | A B C D E F G H 

Turn of: white
Succesful move
a2b2
8 | R N B Q K B N R 
7 | P P _ P P _ _ P 
6 | _ _ P _ _ _ P _ 
5 | _ _ _ _ _ _ _ _ 
4 | P _ _ _ _ _ _ _ 
3 | _ P _ P _ _ P _ 
2 | _ R P _ K _ _ P 
1 | _ N B Q _ B Q R 
-------------------
  | A B C D E F G H 

Turn of: black
Succesful move
e8f7
8 | R N B Q _ B N R 
7 | P P _ P P K _ P 
6 | _ _ P _ _ _ P _ 
5 | _ _ _ _ _ _ _ _ 
4 | P _ _ _ _ _ _ _ 
3 | _ P _ P _ _ P _ 
2 | _ R P _ K _ _ P 
1 | _ N B Q _ B Q R 
-------------------
  | A B C D E F G H 

We are playing as White
Move history:
a2a4
c7c6
b2b3
f7f5
d2d3
g7g6
e2e3
f5f4
c1d2
f4e3
a1a2
e3f2
e1e2
f2g1q
d2c1
e8f7
g2g3
f7e8
a2b2
e8f7
8 | R N B Q _ B N R 
7 | P P _ P P K _ P 
6 | _ _ P _ _ _ P _ 
5 | _ _ _ _ _ _ _ _ 
4 | P _ _ _ _ _ _ _ 
3 | _ P _ P _ _ P _ 
2 | _ R P _ K _ _ P 
1 | _ N B Q _ B Q R 
-------------------
  | A B C D E F G H 

It is white's turn to play.
AI's move: c1g5
Move written: c1g5
[32;1m[Game] [0mPlayer's error code: 0
[32;1m[Game] [0mChecking move validity...
[32;1m[Board] [0mInitializing board...
[32;1m[Board] [0mLoading history file `championship/lizzie-iii-knightmare/history.csv`...
[32;1m[Board] [0mLoaded 20 move(s).
[32;1m[Board] [0mLoading move file `championship/lizzie-iii-knightmare/move.csv`...
[32;1m[Board] [0mWhite player is playing c1 to g5.
[32;1m[Board] [0m
[32;1m[Board] [0m    a b c d e f g h 
[32;1m[Board] [0m  -------------------
[32;1m[Board] [0m8 ||[30;1mr[0m|[30;1mk[0m|[30;1mb[0m|[30;1mQ[0m|[7;1m [0m|[30;1mb[0m|[30;1mk[0m|[30;1mr[0m|| 8
[32;1m[Board] [0m  -------------------
[32;1m[Board] [0m7 ||[30;1mp[0m|[30;1mp[0m| |[30;1mp[0m|[30;1mp[0m|[30;1mK[0m| |[30;1mp[0m|| 7
[32;1m[Board] [0m  -------------------
[32;1m[Board] [0m6 ||[7;1m [0m| |[30;1mp[0m| |[7;1m [0m| |[30;1mp[0m| || 6
[32;1m[Board] [0m  -------------------
[32;1m[Board] [0m5 || |[7;1m [0m| |[7;1m [0m| |[7;1m [0m|[0;1mb[0m|[7;1m [0m|| 5
[32;1m[Board] [0m  -------------------
[...]
7 | P _ _ R _ _ K P 
6 | _ _ P _ _ _ _ _ 
5 | P _ P _ _ _ _ _ 
4 | _ _ K P _ _ P _ 
3 | _ _ _ _ _ _ _ P 
2 | _ _ _ _ _ _ _ _ 
1 | Q _ _ _ _ _ _ _ 
-------------------
  | A B C D E F G H 

Turn of: black
Succesful move
b8d7
8 | R _ _ _ _ B N R 
7 | P _ _ N _ _ K P 
6 | _ _ P _ _ _ _ _ 
5 | P _ P _ _ _ _ _ 
4 | _ _ K P _ _ P _ 
3 | _ _ _ _ _ _ _ P 
2 | _ _ _ _ _ _ _ _ 
1 | Q _ _ _ _ _ _ _ 
-------------------
  | A B C D E F G H 

Turn of: white
Succesful move
a5a6
8 | R _ _ _ _ B N R 
7 | P _ _ N _ _ K P 
6 | P _ P _ _ _ _ _ 
5 | _ _ P _ _ _ _ _ 
4 | _ _ K P _ _ P _ 
3 | _ _ _ _ _ _ _ P 
2 | _ _ _ _ _ _ _ _ 
1 | Q _ _ _ _ _ _ _ 
-------------------
  | A B C D E F G H 

Turn of: black
Succesful move
g7h6
8 | R _ _ _ _ B N R 
7 | P _ _ N _ _ _ P 
6 | P _ P _ _ _ _ K 
5 | _ _ P _ _ _ _ _ 
4 | _ _ K P _ _ P _ 
3 | _ _ _ _ _ _ _ P 
2 | _ _ _ _ _ _ _ _ 
1 | Q _ _ _ _ _ _ _ 
-------------------
  | A B C D E F G H 

Turn of: white
Succesful move
c4d3
8 | R _ _ _ _ B N R 
7 | P _ _ N _ _ _ P 
6 | P _ P _ _ _ _ K 
5 | _ _ P _ _ _ _ _ 
4 | _ _ _ P _ _ P _ 
3 | _ _ _ K _ _ _ P 
2 | _ _ _ _ _ _ _ _ 
1 | Q _ _ _ _ _ _ _ 
-------------------
  | A B C D E F G H 

Turn of: black
Succesful move
h6g7
8 | R _ _ _ _ B N R 
7 | P _ _ N _ _ K P 
6 | P _ P _ _ _ _ _ 
5 | _ _ P _ _ _ _ _ 
4 | _ _ _ P _ _ P _ 
3 | _ _ _ K _ _ _ P 
2 | _ _ _ _ _ _ _ _ 
1 | Q _ _ _ _ _ _ _ 
-------------------
  | A B C D E F G H 

Turn of: white
Succesful move
d3c4
8 | R _ _ _ _ B N R 
7 | P _ _ N _ _ K P 
6 | P _ P _ _ _ _ _ 
5 | _ _ P _ _ _ _ _ 
4 | _ _ K P _ _ P _ 
3 | _ _ _ _ _ _ _ P 
2 | _ _ _ _ _ _ _ _ 
1 | Q _ _ _ _ _ _ _ 
-------------------
  | A B C D E F G H 

Turn of: black
Succesful move
g7h6
8 | R _ _ _ _ B N R 
7 | P _ _ N _ _ _ P 
6 | P _ P _ _ _ _ K 
5 | _ _ P _ _ _ _ _ 
4 | _ _ K P _ _ P _ 
3 | _ _ _ _ _ _ _ P 
2 | _ _ _ _ _ _ _ _ 
1 | Q _ _ _ _ _ _ _ 
-------------------
  | A B C D E F G H 

Turn of: white
Succesful move
g4g5
8 | R _ _ _ _ B N R 
7 | P _ _ N _ _ _ P 
6 | P _ P _ _ _ _ K 
5 | _ _ P _ _ _ P _ 
4 | _ _ K P _ _ _ _ 
3 | _ _ _ _ _ _ _ P 
2 | _ _ _ _ _ _ _ _ 
1 | Q _ _ _ _ _ _ _ 
-------------------
  | A B C D E F G H 

Turn of: black
Succesful move
h6g5
8 | R _ _ _ _ B N R 
7 | P _ _ N _ _ _ P 
6 | P _ P _ _ _ _ _ 
5 | _ _ P _ _ _ K _ 
4 | _ _ K P _ _ _ _ 
3 | _ _ _ _ _ _ _ P 
2 | _ _ _ _ _ _ _ _ 
1 | Q _ _ _ _ _ _ _ 
-------------------
  | A B C D E F G H 

Turn of: white
Succesful move
c4d3
8 | R _ _ _ _ B N R 
7 | P _ _ N _ _ _ P 
6 | P _ P _ _ _ _ _ 
5 | _ _ P _ _ _ K _ 
4 | _ _ _ P _ _ _ _ 
3 | _ _ _ K _ _ _ P 
2 | _ _ _ _ _ _ _ _ 
1 | Q _ _ _ _ _ _ _ 
-------------------
  | A B C D E F G H 

Turn of: black
Succesful move
g5f6
8 | R _ _ _ _ B N R 
7 | P _ _ N _ _ _ P 
6 | P _ P _ _ K _ _ 
5 | _ _ P _ _ _ _ _ 
4 | _ _ _ P _ _ _ _ 
3 | _ _ _ K _ _ _ P 
2 | _ _ _ _ _ _ _ _ 
1 | Q _ _ _ _ _ _ _ 
-------------------
  | A B C D E F G H 

Turn of: white
Succesful move
h3h4
8 | R _ _ _ _ B N R 
7 | P _ _ N _ _ _ P 
6 | P _ P _ _ K _ _ 
5 | _ _ P _ _ _ _ _ 
4 | _ _ _ P _ _ _ P 
3 | _ _ _ K _ _ _ _ 
2 | _ _ _ _ _ _ _ _ 
1 | Q _ _ _ _ _ _ _ 
-------------------
  | A B C D E F G H 

Turn of: black
Succesful move
f6e7
8 | R _ _ _ _ B N R 
7 | P _ _ N K _ _ P 
6 | P _ P _ _ _ _ _ 
5 | _ _ P _ _ _ _ _ 
4 | _ _ _ P _ _ _ P 
3 | _ _ _ K _ _ _ _ 
2 | _ _ _ _ _ _ _ _ 
1 | Q _ _ _ _ _ _ _ 
-------------------
  | A B C D E F G H 

Turn of: white
Succesful move
d4d5
8 | R _ _ _ _ B N R 
7 | P _ _ N K _ _ P 
6 | P _ P _ _ _ _ _ 
5 | _ _ P P _ _ _ _ 
4 | _ _ _ _ _ _ _ P 
3 | _ _ _ K _ _ _ _ 
2 | _ _ _ _ _ _ _ _ 
1 | Q _ _ _ _ _ _ _ 
-------------------
  | A B C D E F G H 

Turn of: black
Succesful move
c6d5
8 | R _ _ _ _ B N R 
7 | P _ _ N K _ _ P 
6 | P _ _ _ _ _ _ _ 
5 | _ _ P P _ _ _ _ 
4 | _ _ _ _ _ _ _ P 
3 | _ _ _ K _ _ _ _ 
2 | _ _ _ _ _ _ _ _ 
1 | Q _ _ _ _ _ _ _ 
-------------------
  | A B C D E F G H 

Turn of: white
Succesful move
d3e3
8 | R _ _ _ _ B N R 
7 | P _ _ N K _ _ P 
6 | P _ _ _ _ _ _ _ 
5 | _ _ P P _ _ _ _ 
4 | _ _ _ _ _ _ _ P 
3 | _ _ _ _ K _ _ _ 
2 | _ _ _ _ _ _ _ _ 
1 | Q _ _ _ _ _ _ _ 
-------------------
  | A B C D E F G H 

Turn of: black
Succesful move
e7d8
8 | R _ _ K _ B N R 
7 | P _ _ N _ _ _ P 
6 | P _ _ _ _ _ _ _ 
5 | _ _ P P _ _ _ _ 
4 | _ _ _ _ _ _ _ P 
3 | _ _ _ _ K _ _ _ 
2 | _ _ _ _ _ _ _ _ 
1 | Q _ _ _ _ _ _ _ 
-------------------
  | A B C D E F G H 

Turn of: white
Succesful move
e3f3
8 | R _ _ K _ B N R 
7 | P _ _ N _ _ _ P 
6 | P _ _ _ _ _ _ _ 
5 | _ _ P P _ _ _ _ 
4 | _ _ _ _ _ _ _ P 
3 | _ _ _ _ _ K _ _ 
2 | _ _ _ _ _ _ _ _ 
1 | Q _ _ _ _ _ _ _ 
-------------------
  | A B C D E F G H 

Turn of: black
Succesful move
d8e8
8 | R _ _ _ K B N R 
7 | P _ _ N _ _ _ P 
6 | P _ _ _ _ _ _ _ 
5 | _ _ P P _ _ _ _ 
4 | _ _ _ _ _ _ _ P 
3 | _ _ _ _ _ K _ _ 
2 | _ _ _ _ _ _ _ _ 
1 | Q _ _ _ _ _ _ _ 
-------------------
  | A B C D E F G H 

Turn of: white
Succesful move
f3g3
8 | R _ _ _ K B N R 
7 | P _ _ N _ _ _ P 
6 | P _ _ _ _ _ _ _ 
5 | _ _ P P _ _ _ _ 
4 | _ _ _ _ _ _ _ P 
3 | _ _ _ _ _ _ K _ 
2 | _ _ _ _ _ _ _ _ 
1 | Q _ _ _ _ _ _ _ 
-------------------
  | A B C D E F G H 

Turn of: black
Succesful move
e8f7
8 | R _ _ _ _ B N R 
7 | P _ _ N _ K _ P 
6 | P _ _ _ _ _ _ _ 
5 | _ _ P P _ _ _ _ 
4 | _ _ _ _ _ _ _ P 
3 | _ _ _ _ _ _ K _ 
2 | _ _ _ _ _ _ _ _ 
1 | Q _ _ _ _ _ _ _ 
-------------------
  | A B C D E F G H 

Turn of: white
Succesful move
g3h2
8 | R _ _ _ _ B N R 
7 | P _ _ N _ K _ P 
6 | P _ _ _ _ _ _ _ 
5 | _ _ P P _ _ _ _ 
4 | _ _ _ _ _ _ _ P 
3 | _ _ _ _ _ _ _ _ 
2 | _ _ _ _ _ _ _ K 
1 | Q _ _ _ _ _ _ _ 
-------------------
  | A B C D E F G H 

Turn of: black
Succesful move
f7e8
8 | R _ _ _ K B N R 
7 | P _ _ N _ _ _ P 
6 | P _ _ _ _ _ _ _ 
5 | _ _ P P _ _ _ _ 
4 | _ _ _ _ _ _ _ P 
3 | _ _ _ _ _ _ _ _ 
2 | _ _ _ _ _ _ _ K 
1 | Q _ _ _ _ _ _ _ 
-------------------
  | A B C D E F G H 

Turn of: white
Succesful move
c5c6
8 | R _ _ _ K B N R 
7 | P _ _ N _ _ _ P 
6 | P _ P _ _ _ _ _ 
5 | _ _ _ P _ _ _ _ 
4 | _ _ _ _ _ _ _ P 
3 | _ _ _ _ _ _ _ _ 
2 | _ _ _ _ _ _ _ K 
1 | Q _ _ _ _ _ _ _ 
-------------------
  | A B C D E F G H 

Turn of: black
Succesful move
e8f7
8 | R _ _ _ _ B N R 
7 | P _ _ N _ K _ P 
6 | P _ P _ _ _ _ _ 
5 | _ _ _ P _ _ _ _ 
4 | _ _ _ _ _ _ _ P 
3 | _ _ _ _ _ _ _ _ 
2 | _ _ _ _ _ _ _ K 
1 | Q _ _ _ _ _ _ _ 
-------------------
  | A B C D E F G H 

Turn of: white
Succesful move
h2g3
8 | R _ _ _ _ B N R 
7 | P _ _ N _ K _ P 
6 | P _ P _ _ _ _ _ 
5 | _ _ _ P _ _ _ _ 
4 | _ _ _ _ _ _ _ P 
3 | _ _ _ _ _ _ K _ 
2 | _ _ _ _ _ _ _ _ 
1 | Q _ _ _ _ _ _ _ 
-------------------
  | A B C D E F G H 

Turn of: black
Succesful move
f7e8
8 | R _ _ _ K B N R 
7 | P _ _ N _ _ _ P 
6 | P _ P _ _ _ _ _ 
5 | _ _ _ P _ _ _ _ 
4 | _ _ _ _ _ _ _ P 
3 | _ _ _ _ _ _ K _ 
2 | _ _ _ _ _ _ _ _ 
1 | Q _ _ _ _ _ _ _ 
-------------------
  | A B C D E F G H 

Turn of: white
Succesful move
g3h3
8 | R _ _ _ K B N R 
7 | P _ _ N _ _ _ P 
6 | P _ P _ _ _ _ _ 
5 | _ _ _ P _ _ _ _ 
4 | _ _ _ _ _ _ _ P 
3 | _ _ _ _ _ _ _ K 
2 | _ _ _ _ _ _ _ _ 
1 | Q _ _ _ _ _ _ _ 
-------------------
  | A B C D E F G H 

Turn of: black
Succesful move
e8f7
8 | R _ _ _ _ B N R 
7 | P _ _ N _ K _ P 
6 | P _ P _ _ _ _ _ 
5 | _ _ _ P _ _ _ _ 
4 | _ _ _ _ _ _ _ P 
3 | _ _ _ _ _ _ _ K 
2 | _ _ _ _ _ _ _ _ 
1 | Q _ _ _ _ _ _ _ 
-------------------
  | A B C D E F G H 

Turn of: white
Succesful move
h4h5
8 | R _ _ _ _ B N R 
7 | P _ _ N _ K _ P 
6 | P _ P _ _ _ _ _ 
5 | _ _ _ P _ _ _ P 
4 | _ _ _ _ _ _ _ _ 
3 | _ _ _ _ _ _ _ K 
2 | _ _ _ _ _ _ _ _ 
1 | Q _ _ _ _ _ _ _ 
-------------------
  | A B C D E F G H 

Turn of: black
Succesful move
f7e8
8 | R _ _ _ K B N R 
7 | P _ _ N _ _ _ P 
6 | P _ P _ _ _ _ _ 
5 | _ _ _ P _ _ _ P 
4 | _ _ _ _ _ _ _ _ 
3 | _ _ _ _ _ _ _ K 
2 | _ _ _ _ _ _ _ _ 
1 | Q _ _ _ _ _ _ _ 
-------------------
  | A B C D E F G H 

Turn of: white
Succesful move
h3g3
8 | R _ _ _ K B N R 
7 | P _ _ N _ _ _ P 
6 | P _ P _ _ _ _ _ 
5 | _ _ _ P _ _ _ P 
4 | _ _ _ _ _ _ _ _ 
3 | _ _ _ _ _ _ K _ 
2 | _ _ _ _ _ _ _ _ 
1 | Q _ _ _ _ _ _ _ 
-------------------
  | A B C D E F G H 

Turn of: black
Succesful move
e8f7
8 | R _ _ _ _ B N R 
7 | P _ _ N _ K _ P 
6 | P _ P _ _ _ _ _ 
5 | _ _ _ P _ _ _ P 
4 | _ _ _ _ _ _ _ _ 
3 | _ _ _ _ _ _ K _ 
2 | _ _ _ _ _ _ _ _ 
1 | Q _ _ _ _ _ _ _ 
-------------------
  | A B C D E F G H 

Turn of: white
Succesful move
c6d7
8 | R _ _ _ _ B N R 
7 | P _ _ P _ K _ P 
6 | P _ _ _ _ _ _ _ 
5 | _ _ _ P _ _ _ P 
4 | _ _ _ _ _ _ _ _ 
3 | _ _ _ _ _ _ K _ 
2 | _ _ _ _ _ _ _ _ 
1 | Q _ _ _ _ _ _ _ 
-------------------
  | A B C D E F G H 

Turn of: black
Succesful move
f7g7
8 | R _ _ _ _ B N R 
7 | P _ _ P _ _ K P 
6 | P _ _ _ _ _ _ _ 
5 | _ _ _ P _ _ _ P 
4 | _ _ _ _ _ _ _ _ 
3 | _ _ _ _ _ _ K _ 
2 | _ _ _ _ _ _ _ _ 
1 | Q _ _ _ _ _ _ _ 
-------------------
  | A B C D E F G H 

Turn of: white
Succesful move
g3f4
8 | R _ _ _ _ B N R 
7 | P _ _ P _ _ K P 
6 | P _ _ _ _ _ _ _ 
5 | _ _ _ P _ _ _ P 
4 | _ _ _ _ _ K _ _ 
3 | _ _ _ _ _ _ _ _ 
2 | _ _ _ _ _ _ _ _ 
1 | Q _ _ _ _ _ _ _ 
-------------------
  | A B C D E F G H 

Turn of: black
Succesful move
g7h6
8 | R _ _ _ _ B N R 
7 | P _ _ P _ _ _ P 
6 | P _ _ _ _ _ _ K 
5 | _ _ _ P _ _ _ P 
4 | _ _ _ _ _ K _ _ 
3 | _ _ _ _ _ _ _ _ 
2 | _ _ _ _ _ _ _ _ 
1 | Q _ _ _ _ _ _ _ 
-------------------
  | A B C D E F G H 

Turn of: white
Succesful move
f4g4
8 | R _ _ _ _ B N R 
7 | P _ _ P _ _ _ P 
6 | P _ _ _ _ _ _ K 
5 | _ _ _ P _ _ _ P 
4 | _ _ _ _ _ _ K _ 
3 | _ _ _ _ _ _ _ _ 
2 | _ _ _ _ _ _ _ _ 
1 | Q _ _ _ _ _ _ _ 
-------------------
  | A B C D E F G H 

Turn of: black
Succesful move
h6g7
8 | R _ _ _ _ B N R 
7 | P _ _ P _ _ K P 
6 | P _ _ _ _ _ _ _ 
5 | _ _ _ P _ _ _ P 
4 | _ _ _ _ _ _ K _ 
3 | _ _ _ _ _ _ _ _ 
2 | _ _ _ _ _ _ _ _ 
1 | Q _ _ _ _ _ _ _ 
-------------------
  | A B C D E F G H 

Turn of: white
Succesful move
d7d8k
8 | R _ _ N _ B N R 
7 | P _ _ _ _ _ K P 
6 | P _ _ _ _ _ _ _ 
5 | _ _ _ P _ _ _ P 
4 | _ _ _ _ _ _ K _ 
3 | _ _ _ _ _ _ _ _ 
2 | _ _ _ _ _ _ _ _ 
1 | Q _ _ _ _ _ _ _ 
-------------------
  | A B C D E F G H 

Turn of: black
Succesful move
g7f6
8 | R _ _ N _ B N R 
7 | P _ _ _ _ _ _ P 
6 | P _ _ _ _ K _ _ 
5 | _ _ _ P _ _ _ P 
4 | _ _ _ _ _ _ K _ 
3 | _ _ _ _ _ _ _ _ 
2 | _ _ _ _ _ _ _ _ 
1 | Q _ _ _ _ _ _ _ 
-------------------
  | A B C D E F G H 

Turn of: white
Succesful move
d8f7
8 | R _ _ _ _ B N R 
7 | P _ _ _ _ N _ P 
6 | P _ _ _ _ K _ _ 
5 | _ _ _ P _ _ _ P 
4 | _ _ _ _ _ _ K _ 
3 | _ _ _ _ _ _ _ _ 
2 | _ _ _ _ _ _ _ _ 
1 | Q _ _ _ _ _ _ _ 
-------------------
  | A B C D E F G H 

Turn of: black
Succesful move
f6f7
8 | R _ _ _ _ B N R 
7 | P _ _ _ _ K _ P 
6 | P _ _ _ _ _ _ _ 
5 | _ _ _ P _ _ _ P 
4 | _ _ _ _ _ _ K _ 
3 | _ _ _ _ _ _ _ _ 
2 | _ _ _ _ _ _ _ _ 
1 | Q _ _ _ _ _ _ _ 
-------------------
  | A B C D E F G H 

Turn of: white
Succesful move
g4f5
8 | R _ _ _ _ B N R 
7 | P _ _ _ _ K _ P 
6 | P _ _ _ _ _ _ _ 
5 | _ _ _ P _ K _ P 
4 | _ _ _ _ _ _ _ _ 
3 | _ _ _ _ _ _ _ _ 
2 | _ _ _ _ _ _ _ _ 
1 | Q _ _ _ _ _ _ _ 
-------------------
  | A B C D E F G H 

Turn of: black
Succesful move
f7e8
8 | R _ _ _ K B N R 
7 | P _ _ _ _ _ _ P 
6 | P _ _ _ _ _ _ _ 
5 | _ _ _ P _ K _ P 
4 | _ _ _ _ _ _ _ _ 
3 | _ _ _ _ _ _ _ _ 
2 | _ _ _ _ _ _ _ _ 
1 | Q _ _ _ _ _ _ _ 
-------------------
  | A B C D E F G H 

Turn of: white
Succesful move
f5e6
8 | R _ _ _ K B N R 
7 | P _ _ _ _ _ _ P 
6 | P _ _ _ K _ _ _ 
5 | _ _ _ P _ _ _ P 
4 | _ _ _ _ _ _ _ _ 
3 | _ _ _ _ _ _ _ _ 
2 | _ _ _ _ _ _ _ _ 
1 | Q _ _ _ _ _ _ _ 
-------------------
  | A B C D E F G H 

Turn of: black
Succesful move
e8d8
8 | R _ _ K _ B N R 
7 | P _ _ _ _ _ _ P 
6 | P _ _ _ K _ _ _ 
5 | _ _ _ P _ _ _ P 
4 | _ _ _ _ _ _ _ _ 
3 | _ _ _ _ _ _ _ _ 
2 | _ _ _ _ _ _ _ _ 
1 | Q _ _ _ _ _ _ _ 
-------------------
  | A B C D E F G H 

Turn of: white
Succesful move
e6f5
8 | R _ _ K _ B N R 
7 | P _ _ _ _ _ _ P 
6 | P _ _ _ _ _ _ _ 
5 | _ _ _ P _ K _ P 
4 | _ _ _ _ _ _ _ _ 
3 | _ _ _ _ _ _ _ _ 
2 | _ _ _ _ _ _ _ _ 
1 | Q _ _ _ _ _ _ _ 
-------------------
  | A B C D E F G H 

Turn of: black
Succesful move
d8e8
8 | R _ _ _ K B N R 
7 | P _ _ _ _ _ _ P 
6 | P _ _ _ _ _ _ _ 
5 | _ _ _ P _ K _ P 
4 | _ _ _ _ _ _ _ _ 
3 | _ _ _ _ _ _ _ _ 
2 | _ _ _ _ _ _ _ _ 
1 | Q _ _ _ _ _ _ _ 
-------------------
  | A B C D E F G H 

Turn of: white
Succesful move
f5e6
8 | R _ _ _ K B N R 
7 | P _ _ _ _ _ _ P 
6 | P _ _ _ K _ _ _ 
5 | _ _ _ P _ _ _ P 
4 | _ _ _ _ _ _ _ _ 
3 | _ _ _ _ _ _ _ _ 
2 | _ _ _ _ _ _ _ _ 
1 | Q _ _ _ _ _ _ _ 
-------------------
  | A B C D E F G H 

Turn of: black
Succesful move
e8d8
8 | R _ _ K _ B N R 
7 | P _ _ _ _ _ _ P 
6 | P _ _ _ K _ _ _ 
5 | _ _ _ P _ _ _ P 
4 | _ _ _ _ _ _ _ _ 
3 | _ _ _ _ _ _ _ _ 
2 | _ _ _ _ _ _ _ _ 
1 | Q _ _ _ _ _ _ _ 
-------------------
  | A B C D E F G H 

Turn of: white
Succesful move
h5h6
8 | R _ _ K _ B N R 
7 | P _ _ _ _ _ _ P 
6 | P _ _ _ K _ _ P 
5 | _ _ _ P _ _ _ _ 
4 | _ _ _ _ _ _ _ _ 
3 | _ _ _ _ _ _ _ _ 
2 | _ _ _ _ _ _ _ _ 
1 | Q _ _ _ _ _ _ _ 
-------------------
  | A B C D E F G H 

Turn of: black
Succesful move
d8e8
8 | R _ _ _ K B N R 
7 | P _ _ _ _ _ _ P 
6 | P _ _ _ K _ _ P 
5 | _ _ _ P _ _ _ _ 
4 | _ _ _ _ _ _ _ _ 
3 | _ _ _ _ _ _ _ _ 
2 | _ _ _ _ _ _ _ _ 
1 | Q _ _ _ _ _ _ _ 
-------------------
  | A B C D E F G H 

Turn of: white
Succesful move
e6f5
8 | R _ _ _ K B N R 
7 | P _ _ _ _ _ _ P 
6 | P _ _ _ _ _ _ P 
5 | _ _ _ P _ K _ _ 
4 | _ _ _ _ _ _ _ _ 
3 | _ _ _ _ _ _ _ _ 
2 | _ _ _ _ _ _ _ _ 
1 | Q _ _ _ _ _ _ _ 
-------------------
  | A B C D E F G H 

Turn of: black
Succesful move
e8f7
8 | R _ _ _ _ B N R 
7 | P _ _ _ _ K _ P 
6 | P _ _ _ _ _ _ P 
5 | _ _ _ P _ K _ _ 
4 | _ _ _ _ _ _ _ _ 
3 | _ _ _ _ _ _ _ _ 
2 | _ _ _ _ _ _ _ _ 
1 | Q _ _ _ _ _ _ _ 
-------------------
  | A B C D E F G H 

Turn of: white
Succesful move
f5f4
8 | R _ _ _ _ B N R 
7 | P _ _ _ _ K _ P 
6 | P _ _ _ _ _ _ P 
5 | _ _ _ P _ _ _ _ 
4 | _ _ _ _ _ K _ _ 
3 | _ _ _ _ _ _ _ _ 
2 | _ _ _ _ _ _ _ _ 
1 | Q _ _ _ _ _ _ _ 
-------------------
  | A B C D E F G H 

Turn of: black
Succesful move
f7e8
8 | R _ _ _ K B N R 
7 | P _ _ _ _ _ _ P 
6 | P _ _ _ _ _ _ P 
5 | _ _ _ P _ _ _ _ 
4 | _ _ _ _ _ K _ _ 
3 | _ _ _ _ _ _ _ _ 
2 | _ _ _ _ _ _ _ _ 
1 | Q _ _ _ _ _ _ _ 
-------------------
  | A B C D E F G H 

Turn of: white
Succesful move
f4f5
8 | R _ _ _ K B N R 
7 | P _ _ _ _ _ _ P 
6 | P _ _ _ _ _ _ P 
5 | _ _ _ P _ K _ _ 
4 | _ _ _ _ _ _ _ _ 
3 | _ _ _ _ _ _ _ _ 
2 | _ _ _ _ _ _ _ _ 
1 | Q _ _ _ _ _ _ _ 
-------------------
  | A B C D E F G H 

Turn of: black
Succesful move
e8f7
8 | R _ _ _ _ B N R 
7 | P _ _ _ _ K _ P 
6 | P _ _ _ _ _ _ P 
5 | _ _ _ P _ K _ _ 
4 | _ _ _ _ _ _ _ _ 
3 | _ _ _ _ _ _ _ _ 
2 | _ _ _ _ _ _ _ _ 
1 | Q _ _ _ _ _ _ _ 
-------------------
  | A B C D E F G H 

Turn of: white
Succesful move
f5g5
8 | R _ _ _ _ B N R 
7 | P _ _ _ _ K _ P 
6 | P _ _ _ _ _ _ P 
5 | _ _ _ P _ _ K _ 
4 | _ _ _ _ _ _ _ _ 
3 | _ _ _ _ _ _ _ _ 
2 | _ _ _ _ _ _ _ _ 
1 | Q _ _ _ _ _ _ _ 
-------------------
  | A B C D E F G H 

Turn of: black
Succesful move
f7e8
8 | R _ _ _ K B N R 
7 | P _ _ _ _ _ _ P 
6 | P _ _ _ _ _ _ P 
5 | _ _ _ P _ _ K _ 
4 | _ _ _ _ _ _ _ _ 
3 | _ _ _ _ _ _ _ _ 
2 | _ _ _ _ _ _ _ _ 
1 | Q _ _ _ _ _ _ _ 
-------------------
  | A B C D E F G H 

Turn of: white
Succesful move
g5h4
8 | R _ _ _ K B N R 
7 | P _ _ _ _ _ _ P 
6 | P _ _ _ _ _ _ P 
5 | _ _ _ P _ _ _ _ 
4 | _ _ _ _ _ _ _ K 
3 | _ _ _ _ _ _ _ _ 
2 | _ _ _ _ _ _ _ _ 
1 | Q _ _ _ _ _ _ _ 
-------------------
  | A B C D E F G H 

Turn of: black
Succesful move
e8f7
8 | R _ _ _ _ B N R 
7 | P _ _ _ _ K _ P 
6 | P _ _ _ _ _ _ P 
5 | _ _ _ P _ _ _ _ 
4 | _ _ _ _ _ _ _ K 
3 | _ _ _ _ _ _ _ _ 
2 | _ _ _ _ _ _ _ _ 
1 | Q _ _ _ _ _ _ _ 
-------------------
  | A B C D E F G H 

Turn of: white
Succesful move
h4g5
8 | R _ _ _ _ B N R 
7 | P _ _ _ _ K _ P 
6 | P _ _ _ _ _ _ P 
5 | _ _ _ P _ _ K _ 
4 | _ _ _ _ _ _ _ _ 
3 | _ _ _ _ _ _ _ _ 
2 | _ _ _ _ _ _ _ _ 
1 | Q _ _ _ _ _ _ _ 
-------------------
  | A B C D E F G H 

Turn of: black
Succesful move
f7e8
8 | R _ _ _ K B N R 
7 | P _ _ _ _ _ _ P 
6 | P _ _ _ _ _ _ P 
5 | _ _ _ P _ _ K _ 
4 | _ _ _ _ _ _ _ _ 
3 | _ _ _ _ _ _ _ _ 
2 | _ _ _ _ _ _ _ _ 
1 | Q _ _ _ _ _ _ _ 
-------------------
  | A B C D E F G H 

Turn of: white
Succesful move
g5h4
8 | R _ _ _ K B N R 
7 | P _ _ _ _ _ _ P 
6 | P _ _ _ _ _ _ P 
5 | _ _ _ P _ _ _ _ 
4 | _ _ _ _ _ _ _ K 
3 | _ _ _ _ _ _ _ _ 
2 | _ _ _ _ _ _ _ _ 
1 | Q _ _ _ _ _ _ _ 
-------------------
  | A B C D E F G H 

Turn of: black
Succesful move
e8f7
8 | R _ _ _ _ B N R 
7 | P _ _ _ _ K _ P 
6 | P _ _ _ _ _ _ P 
5 | _ _ _ P _ _ _ _ 
4 | _ _ _ _ _ _ _ K 
3 | _ _ _ _ _ _ _ _ 
2 | _ _ _ _ _ _ _ _ 
1 | Q _ _ _ _ _ _ _ 
-------------------
  | A B C D E F G H 

We are playing as White
Move history:
a2a4
c7c6
b2b3
f7f5
d2d3
g7g6
e2e3
f5f4
c1d2
f4e3
a1a2
e3f2
e1e2
f2g1q
d2c1
e8f7
g2g3
f7e8
a2b2
e8f7
c1g5
f7e8
a4a5
e8f7
g5h4
f7e8
c2c4
e8f7
b1d2
f7e8
b3b4
e8f7
h2h3
f7e8
a5a6
e8f7
d1c2
f7e8
c2b1
e8f7
h4e7
f7e7
b1c2
e7e8
e2d1
e8f7
c2b3
f7e8
b2c2
e8f7
d1c1
f7e8
b3b2
e8f7
d3d4
f7e8
b2a2
e8f7
a2a5
f7e8
c1b1
d8a5
h1h2
e8f7
h2g2
f7e8
b1c1
e8f7
g2g1
f7e8
d2f3
e8f7
c2c3
f7e8
b4a5
e8f7
c3a3
f7e8
c4c5
e8f7
c1b1
f7e8
f3d2
e8f7
a3f3
f7g7
f3a3
g7h6
a3b3
h6g7
b3d3
g7h6
b1a2
h6g7
d3e3
g7h6
e3a3
h6g7
a2b3
g7h6
f1g2
h6g7
d2f3
g7h6
f3g5
h6h5
g5f3
h5h6
g1e1
h6g7
e1a1
g7h6
f3h4
g6g5
h4f3
h6g7
b3c4
g5g4
a3c3
g4f3
c3d3
f3g2
d3e3
g2g1q
c4b3
g1a1
g3g4
g7h6
a6b7
h6g7
e3e8
g7h6
e8d8
h6g7
b7c8r
g7h6
b3c4
h6g7
c8c6
d7c6
c4d3
g7h6
d3c4
h6g7
d8d7
b8d7
a5a6
g7h6
c4d3
h6g7
d3c4
g7h6
g4g5
h6g5
c4d3
g5f6
h3h4
f6e7
d4d5
c6d5
d3e3
e7d8
e3f3
d8e8
f3g3
e8f7
g3h2
f7e8
c5c6
e8f7
h2g3
f7e8
g3h3
e8f7
h4h5
f7e8
h3g3
e8f7
c6d7
f7g7
g3f4
g7h6
f4g4
h6g7
d7d8k
g7f6
d8f7
f6f7
g4f5
f7e8
f5e6
e8d8
e6f5
d8e8
f5e6
e8d8
h5h6
d8e8
e6f5
e8f7
f5f4
f7e8
f4f5
e8f7
f5g5
f7e8
g5h4
e8f7
h4g5
f7e8
g5h4
e8f7
8 | R _ _ _ _ B N R 
7 | P _ _ _ _ K _ P 
6 | P _ _ _ _ _ _ P 
5 | _ _ _ P _ _ _ _ 
4 | _ _ _ _ _ _ _ K 
3 | _ _ _ _ _ _ _ _ 
2 | _ _ _ _ _ _ _ _ 
1 | Q _ _ _ _ _ _ _ 
-------------------
  | A B C D E F G H 

It is white's turn to play.
AI's move: h4g5
Move written: h4g5
[32;1m[Game] [0mPlayer's error code: 0
[32;1m[Game] [0mChecking move validity...
[32;1m[Board] [0mInitializing board...
[32;1m[Board] [0mLoading history file `championship/lizzie-iii-knightmare/history.csv`...
[32;1m[Board] [0mLoaded 212 move(s).
[32;1m[Board] [0mLoading move file `championship/lizzie-iii-knightmare/move.csv`...
[32;1m[Board] [0mWhite player is playing h4 to g5.
[32;1m[Board] [0m
[32;1m[Board] [0m    a b c d e f g h 
[32;1m[Board] [0m  -------------------
[32;1m[Board] [0m8 ||[30;1mr[0m| |[7;1m [0m| |[7;1m [0m|[30;1mb[0m|[30;1mk[0m|[30;1mr[0m|| 8
[32;1m[Board] [0m  -------------------
[32;1m[Board] [0m7 ||[30;1mp[0m|[7;1m [0m| |[7;1m [0m| |[30;1mK[0m| |[30;1mp[0m|| 7
[32;1m[Board] [0m  -------------------
[32;1m[Board] [0m6 ||[0;1mp[0m| |[7;1m [0m| |[7;1m [0m| |[7;1m [0m|[0;1mp[0m|| 6
[32;1m[Board] [0m  -------------------
[32;1m[Board] [0m5 || |[7;1m [0m| |[30;1mp[0m| |[7;1m [0m|[0;1mK[0m|[7;1m [0m|| 5
[32;1m[Board] [0m  -------------------
[32;1m[Board] [0m4 ||[7;1m [0m| |[7;1m [0m| |[7;1m [0m| |[7;1m [0m| || 4
[32;1m[Board] [0m  -------------------
[32;1m[Board] [0m3 || |[7;1m [0m| |[7;1m [0m| |[7;1m [0m| |[7;1m [0m|| 3
[32;1m[Board] [0m  -------------------
[32;1m[Board] [0m2 ||[7;1m [0m| |[7;1m [0m| |[7;1m [0m| |[7;1m [0m| || 2
[32;1m[Board] [0m  -------------------
[32;1m[Board] [0m1 ||[30;1mQ[0m|[7;1m [0m| |[7;1m [0m| |[7;1m [0m| |[7;1m [0m|| 1
[32;1m[Board] [0m  -------------------
[32;1m[Board] [0m    a b c d e f g h
[32;1m[Board] [0m
[32;1m[Referee] [0mThis is the turn of the Black player...
[32;1m[Board] [0m[33;1m[WARNING][0m Current board equals previous board (move #205)
[32;1m[Board] [0m[33;1m[WARNING][0m Current board equals previous board (move #209)
[32;1m[Board] [0m[33;1m[WARNING][0m [5;1mThe current board occurred at least 3 times already :([0m
[32;1m[Board] [0m[33;1m[WARNING][0m Draw! Game over.
