[32;1m[Board] [0mInitializing board...
[32;1m[Board] [0m
[32;1m[Board] [0m    a b c d e f g h 
[32;1m[Board] [0m  -------------------
[32;1m[Board] [0m8 ||[30;1mr[0m|[30;1mk[0m|[30;1mb[0m|[30;1mQ[0m|[30;1mK[0m|[30;1mb[0m|[30;1mk[0m|[30;1mr[0m|| 8
[32;1m[Board] [0m  -------------------
[32;1m[Board] [0m7 ||[30;1mp[0m|[30;1mp[0m|[30;1mp[0m|[30;1mp[0m|[30;1mp[0m|[30;1mp[0m|[30;1mp[0m|[30;1mp[0m|| 7
[32;1m[Board] [0m  -------------------
[32;1m[Board] [0m6 ||[7;1m [0m| |[7;1m [0m| |[7;1m [0m| |[7;1m [0m| || 6
[32;1m[Board] [0m  -------------------
[32;1m[Board] [0m5 || |[7;1m [0m| |[7;1m [0m| |[7;1m [0m| |[7;1m [0m|| 5
[32;1m[Board] [0m  -------------------
[32;1m[Board] [0m4 ||[7;1m [0m| |[7;1m [0m| |[7;1m [0m| |[7;1m [0m| || 4
[32;1m[Board] [0m  -------------------
[32;1m[Board] [0m3 || |[7;1m [0m| |[7;1m [0m| |[7;1m [0m| |[7;1m [0m|| 3
[32;1m[Board] [0m  -------------------
[32;1m[Board] [0m2 ||[0;1mp[0m|[0;1mp[0m|[0;1mp[0m|[0;1mp[0m|[0;1mp[0m|[0;1mp[0m|[0;1mp[0m|[0;1mp[0m|| 2
[32;1m[Board] [0m  -------------------
[32;1m[Board] [0m1 ||[0;1mr[0m|[0;1mk[0m|[0;1mb[0m|[0;1mQ[0m|[0;1mK[0m|[0;1mb[0m|[0;1mk[0m|[0;1mr[0m|| 1
[32;1m[Board] [0m  -------------------
[32;1m[Board] [0m    a b c d e f g h
[32;1m[Board] [0m
[32;1m[Referee] [0mThis is the turn of the White player...
Input file: championship/lizzie-iii-git-gambit/history.csv
Output file: championship/lizzie-iii-git-gambit/move.csv
We are playing as White
Move history:
8 | R N B Q K B N R 
7 | P P P P P P P P 
6 | _ _ _ _ _ _ _ _ 
5 | _ _ _ _ _ _ _ _ 
4 | _ _ _ _ _ _ _ _ 
3 | _ _ _ _ _ _ _ _ 
2 | P P P P P P P P 
1 | R N B Q K B N R 
-------------------
  | A B C D E F G H 

It is white's turn to play.
AI's move: e2e3
Move written: e2e3
[32;1m[Game] [0mPlayer's error code: 0
[32;1m[Game] [0mChecking move validity...
[32;1m[Board] [0mInitializing board...
[32;1m[Board] [0mLoading history file `championship/lizzie-iii-git-gambit/history.csv`...
[32;1m[Board] [0mLoaded 0 move(s).
[32;1m[Board] [0mLoading move file `championship/lizzie-iii-git-gambit/move.csv`...
[32;1m[Board] [0mWhite player is playing e2 to e3.
[32;1m[Board] [0m
[32;1m[Board] [0m    a b c d e f g h 
[32;1m[Board] [0m  -------------------
[32;1m[Board] [0m8 ||[30;1mr[0m|[30;1mk[0m|[30;1mb[0m|[30;1mQ[0m|[30;1mK[0m|[30;1mb[0m|[30;1mk[0m|[30;1mr[0m|| 8
[32;1m[Board] [0m  -------------------
[32;1m[Board] [0m7 ||[30;1mp[0m|[30;1mp[0m|[30;1mp[0m|[30;1mp[0m|[30;1mp[0m|[30;1mp[0m|[30;1mp[0m|[30;1mp[0m|| 7
[32;1m[Board] [0m  -------------------
[32;1m[Board] [0m6 ||[7;1m [0m| |[7;1m [0m| |[7;1m [0m| |[7;1m [0m| || 6
[32;1m[Board] [0m  -------------------
[32;1m[Board] [0m5 || |[7;1m [0m| |[7;1m [0m| |[7;1m [0m| |[7;1m [0m|| 5
[32;1m[Board] [0m  -------------------
[32;1m[Board] [0m4 ||[7;1m [0m| |[7;1m [0m| |[7;1m [0m| |[7;1m [0m| || 4
[32;1m[Board] [0m  -------------------
[32;1m[Board] [0m3 || |[7;1m [0m| |[7;1m [0m|[0;1mp[0m|[7;1m [0m| |[7;1m [0m|| 3
[32;1m[Board] [0m  -------------------
[32;1m[Board] [0m2 ||[0;1mp[0m|[0;1mp[0m|[0;1mp[0m|[0;1mp[0m|[7;1m [0m|[0;1mp[0m|[0;1mp[0m|[0;1mp[0m|| 2
[32;1m[Board] [0m  -------------------
[32;1m[Board] [0m1 ||[0;1mr[0m|[0;1mk[0m|[0;1mb[0m|[0;1mQ[0m|[0;1mK[0m|[0;1mb[0m|[0;1mk[0m|[0;1mr[0m|| 1
[32;1m[Board] [0m  -------------------
[32;1m[Board] [0m    a b c d e f g h
[32;1m[Board] [0m
[32;1m[Referee] [0mThis is the turn of the Black player...

    a   b   c   d   e   f   g   h 
8 | r | n | b | q | k | b | n | r  | 8
7 | p | p | p | p | p | p | p | p  | 7
6 |   |   |   |   |   |   |   |    | 6
5 |   |   |   |   |   |   |   |    | 5
4 |   |   |   |   |   |   |   |    | 4
3 |   |   |   |   | P |   |   |    | 3
2 | P | P | P | P |   | P | P | P  | 2
1 | R | N | B | Q | K | B | N | R  | 1
    a   b   c   d   e   f   g   h 

next move: e7e5

[32;1m[Game] [0mPlayer's error code: 0
[32;1m[Game] [0mChecking move validity...
[32;1m[Board] [0mInitializing board...
[32;1m[Board] [0mLoading history file `championship/lizzie-iii-git-gambit/history.csv`...
[32;1m[Board] [0mLoaded 1 move(s).
[32;1m[Board] [0mLoading move file `championship/lizzie-iii-git-gambit/move.csv`...
[32;1m[Board] [0mBlack player is playing e7 to e5.
[32;1m[Board] [0m
[32;1m[Board] [0m    a b c d e f g h 
[32;1m[Board] [0m  -------------------
[32;1m[Board] [0m8 ||[30;1mr[0m|[30;1mk[0m|[30;1mb[0m|[30;1mQ[0m|[30;1mK[0m|[30;1mb[0m|[30;1mk[0m|[30;1mr[0m|| 8
[32;1m[Board] [0m  -------------------
[32;1m[Board] [0m7 ||[30;1mp[0m|[30;1mp[0m|[30;1mp[0m|[30;1mp[0m| |[30;1mp[0m|[30;1mp[0m|[30;1mp[0m|| 7
[32;1m[Board] [0m  -------------------
[32;1m[Board] [0m6 ||[7;1m [0m| |[7;1m [0m| |[7;1m [0m| |[7;1m [0m| || 6
[32;1m[Board] [0m  -------------------
[32;1m[Board] [0m5 || |[7;1m [0m| |[7;1m [0m|[30;1mp[0m|[7;1m [0m| |[7;1m [0m|| 5
[32;1m[Board] [0m  -------------------
[32;1m[Board] [0m4 ||[7;1m [0m| |[7;1m [0m| |[7;1m [0m| |[7;1m [0m| || 4
[32;1m[Board] [0m  -------------------
[32;1m[Board] [0m3 || |[7;1m [0m| |[7;1m [0m|[0;1mp[0m|[7;1m [0m| |[7;1m [0m|| 3
[32;1m[Board] [0m  -------------------
[32;1m[Board] [0m2 ||[0;1mp[0m|[0;1mp[0m|[0;1mp[0m|[0;1mp[0m|[7;1m [0m|[0;1mp[0m|[0;1mp[0m|[0;1mp[0m|| 2
[32;1m[Board] [0m  -------------------
[32;1m[Board] [0m1 ||[0;1mr[0m|[0;1mk[0m|[0;1mb[0m|[0;1mQ[0m|[0;1mK[0m|[0;1mb[0m|[0;1mk[0m|[0;1mr[0m|| 1
[32;1m[Board] [0m  -------------------
[32;1m[Board] [0m    a b c d e f g h
[32;1m[Board] [0m
[32;1m[Referee] [0mThis is the turn of the White player...
Input file: championship/lizzie-iii-git-gambit/history.csv
Output file: championship/lizzie-iii-git-gambit/move.csv
Turn of: white
Succesful move
e2e3
8 | R N B Q K B N R 
7 | P P P P P P P P 
6 | _ _ _ _ _ _ _ _ 
5 | _ _ _ _ _ _ _ _ 
4 | _ _ _ _ _ _ _ _ 
3 | _ _ _ _ P _ _ _ 
2 | P P P P _ P P P 
1 | R N B Q K B N R 
-------------------
  | A B C D E F G H 

Turn of: black
Succesful move
e7e5
8 | R N B Q K B N R 
7 | P P P P _ P P P 
6 | _ _ _ _ _ _ _ _ 
5 | _ _ _ _ P _ _ _ 
4 | _ _ _ _ _ _ _ _ 
3 | _ _ _ _ P _ _ _ 
2 | P P P P _ P P P 
1 | R N B Q K B N R 
-------------------
  | A B C D E F G H 

We are playing as White
Move history:
e2e3
e7e5
8 | R N B Q K B N R 
7 | P P P P _ P P P 
6 | _ _ _ _ _ _ _ _ 
5 | _ _ _ _ P _ _ _ 
4 | _ _ _ _ _ _ _ _ 
3 | _ _ _ _ P _ _ _ 
2 | P P P P _ P P P 
1 | R N B Q K B N R 
-------------------
  | A B C D E F G H 

It is white's turn to play.
AI's move: h2h3
Move written: h2h3
[32;1m[Game] [0mPlayer's error code: 0
[32;1m[Game] [0mChecking move validity...
[32;1m[Board] [0mInitializing board...
[32;1m[Board] [0mLoading history file `championship/lizzie-iii-git-gambit/history.csv`...
[32;1m[Board] [0mLoaded 2 move(s).
[32;1m[Board] [0mLoading move file `championship/lizzie-iii-git-gambit/move.csv`...
[32;1m[Board] [0mWhite player is playing h2 to h3.
[32;1m[Board] [0m
[32;1m[Board] [0m    a b c d e f g h 
[32;1m[Board] [0m  -------------------
[32;1m[Board] [0m8 ||[30;1mr[0m|[30;1mk[0m|[30;1mb[0m|[30;1mQ[0m|[30;1mK[0m|[30;1mb[0m|[30;1mk[0m|[30;1mr[0m|| 8
[32;1m[Board] [0m  -------------------
[32;1m[Board] [0m7 ||[30;1mp[0m|[30;1mp[0m|[30;1mp[0m|[30;1mp[0m| |[30;1mp[0m|[30;1mp[0m|[30;1mp[0m|| 7
[32;1m[Board] [0m  -------------------
[32;1m[Board] [0m6 ||[7;1m [0m| |[7;1m [0m| |[7;1m [0m| |[7;1m [0m| || 6
[32;1m[Board] [0m  -------------------
[32;1m[Board] [0m5 || |[7;1m [0m| |[7;1m [0m|[30;1mp[0m|[7;1m [0m| |[7;1m [0m|| 5
[32;1m[Board] [0m  -------------------
[32;1m[Board] [0m4 ||[7;1m [0m| |[7;1m [0m| |[7;1m [0m| |[7;1m [0m| || 4
[32;1m[Board] [0m  -------------------
[32;1m[Board] [0m3 || |[7;1m [0m| |[7;1m [0m|[0;1mp[0m|[7;1m [0m| |[0;1mp[0m|| 3
[32;1m[Board] [0m  -------------------
[32;1m[Board] [0m2 ||[0;1mp[0m|[0;1mp[0m|[0;1mp[0m|[0;1mp[0m|[7;1m [0m|[0;1mp[0m|[0;1mp[0m| || 2
[32;1m[Board] [0m  -------------------
[32;1m[Board] [0m1 ||[0;1mr[0m|[0;1mk[0m|[0;1mb[0m|[0;1mQ[0m|[0;1mK[0m|[0;1mb[0m|[0;1mk[0m|[0;1mr[0m|| 1
[32;1m[Board] [0m  -------------------
[32;1m[Board] [0m    a b c d e f g h
[32;1m[Board] [0m
[32;1m[Referee] [0mThis is the turn of the Black player...

    a   b   c   d   e   f   g   h 
8 | r | n | b | q | k | b | n | r  | 8
7 | p | p | p | p |   | p | p | p  | 7
6 |   |   |   |   |   |   |   |    | 6
5 |   |   |   |   | p |   |   |    | 5
4 |   |   |   |   |   |   |   |    | 4
3 |   |   |   |   | P |   |   | P  | 3
2 | P | P | P | P |   | P | P |    | 2
1 | R | N | B | Q | K | B | N | R  | 1
    a   b   c   d   e   f   g   h 

next move: b8c6

[32;1m[Game] [0mPlayer's error code: 0
[32;1m[Game] [0mChecking move validity...
[32;1m[Board] [0mInitializing board...
[32;1m[Board] [0mLoading history file `championship/lizzie-iii-git-gambit/history.csv`...
[32;1m[Board] [0mLoaded 3 move(s).
[32;1m[Board] [0mLoading move file `championship/lizzie-iii-git-gambit/move.csv`...
[32;1m[Board] [0mBlack player is playing b8 to c6.
[32;1m[Board] [0m
[32;1m[Board] [0m    a b c d e f g h 
[32;1m[Board] [0m  -------------------
[32;1m[Board] [0m8 ||[30;1mr[0m| |[30;1mb[0m|[30;1mQ[0m|[30;1mK[0m|[30;1mb[0m|[30;1mk[0m|[30;1mr[0m|| 8
[32;1m[Board] [0m  -------------------
[32;1m[Board] [0m7 ||[30;1mp[0m|[30;1mp[0m|[30;1mp[0m|[30;1mp[0m| |[30;1mp[0m|[30;1mp[0m|[30;1mp[0m|| 7
[32;1m[Board] [0m  -------------------
[32;1m[Board] [0m6 ||[7;1m [0m| |[30;1mk[0m| |[7;1m [0m| |[7;1m [0m| || 6
[32;1m[Board] [0m  -------------------
[32;1m[Board] [0m5 || |[7;1m [0m| |[7;1m [0m|[30;1mp[0m|[7;1m [0m| |[7;1m [0m|| 5
[32;1m[Board] [0m  -------------------
[32;1m[Board] [0m4 ||[7;1m [0m| |[7;1m [0m| |[7;1m [0m| |[7;1m [0m| || 4
[32;1m[Board] [0m  -------------------
[32;1m[Board] [0m3 || |[7;1m [0m| |[7;1m [0m|[0;1mp[0m|[7;1m [0m| |[0;1mp[0m|| 3
[32;1m[Board] [0m  -------------------
[32;1m[Board] [0m2 ||[0;1mp[0m|[0;1mp[0m|[0;1mp[0m|[0;1mp[0m|[7;1m [0m|[0;1mp[0m|[0;1mp[0m| || 2
[32;1m[Board] [0m  -------------------
[32;1m[Board] [0m1 ||[0;1mr[0m|[0;1mk[0m|[0;1mb[0m|[0;1mQ[0m|[0;1mK[0m|[0;1mb[0m|[0;1mk[0m|[0;1mr[0m|| 1
[32;1m[Board] [0m  -------------------
[32;1m[Board] [0m    a b c d e f g h
[32;1m[Board] [0m
[32;1m[Referee] [0mThis is the turn of the White player...
Input file: championship/lizzie-iii-git-gambit/history.csv
Output file: championship/lizzie-iii-git-gambit/move.csv
Turn of: white
Succesful move
e2e3
8 | R N B Q K B N R 
7 | P P P P P P P P 
6 | _ _ _ _ _ _ _ _ 
5 | _ _ _ _ _ _ _ _ 
4 | _ _ _ _ _ _ _ _ 
3 | _ _ _ _ P _ _ _ 
2 | P P P P _ P P P 
1 | R N B Q K B N R 
-------------------
  | A B C D E F G H 

Turn of: black
Succesful move
e7e5
8 | R N B Q K B N R 
7 | P P P P _ P P P 
6 | _ _ _ _ _ _ _ _ 
5 | _ _ _ _ P _ _ _ 
4 | _ _ _ _ _ _ _ _ 
3 | _ _ _ _ P _ _ _ 
2 | P P P P _ P P P 
1 | R N B Q K B N R 
-------------------
  | A B C D E F G H 

Turn of: white
Succesful move
h2h3
8 | R N B Q K B N R 
7 | P P P P _ P P P 
6 | _ _ _ _ _ _ _ _ 
5 | _ _ _ _ P _ _ _ 
4 | _ _ _ _ _ _ _ _ 
3 | _ _ _ _ P _ _ P 
2 | P P P P _ P P _ 
1 | R N B Q K B N R 
-------------------
  | A B C D E F G H 

Turn of: black
Succesful move
b8c6
8 | R _ B Q K B N R 
7 | P P P P _ P P P 
6 | _ _ N _ _ _ _ _ 
5 | _ _ _ _ P _ _ _ 
4 | _ _ _ _ _ _ _ _ 
3 | _ _ _ _ P _ _ P 
2 | P P P P _ P P _ 
1 | R N B Q K B N R 
-------------------
  | A B C D E F G H 

We are playing as White
Move history:
e2e3
e7e5
h2h3
b8c6
8 | R _ B Q K B N R 
7 | P P P P _ P P P 
6 | _ _ N _ _ _ _ _ 
5 | _ _ _ _ P _ _ _ 
4 | _ _ _ _ _ _ _ _ 
3 | _ _ _ _ P _ _ P 
2 | P P P P _ P P _ 
1 | R N B Q K B N R 
-------------------
  | A B C D E F G H 

It is white's turn to play.
AI's move: g1f3
Move written: g1f3
[32;1m[Game] [0mPlayer's error code: 0
[32;1m[Game] [0mChecking move validity...
[32;1m[Board] [0mInitializing board...
[32;1m[Board] [0mLoading history file `championship/lizzie-iii-git-gambit/history.csv`...
[32;1m[Board] [0mLoaded 4 move(s).
[32;1m[Board] [0mLoading move file `championship/lizzie-iii-git-gambit/move.csv`...
[32;1m[Board] [0mWhite player is playing g1 to f3.
[32;1m[Board] [0m
[32;1m[Board] [0m    a b c d e f g h 
[32;1m[Board] [0m  -------------------
[32;1m[Board] [0m8 ||[30;1mr[0m| |[30;1mb[0m|[30;1mQ[0m|[30;1mK[0m|[30;1mb[0m|[30;1mk[0m|[30;1mr[0m|| 8
[32;1m[Board] [0m  -------------------
[32;1m[Board] [0m7 ||[30;1mp[0m|[30;1mp[0m|[30;1mp[0m|[30;1mp[0m| |[30;1mp[0m|[30;1mp[0m|[30;1mp[0m|| 7
[32;1m[Board] [0m  -------------------
[32;1m[Board] [0m6 ||[7;1m [0m| |[30;1mk[0m| |[7;1m [0m| |[7;1m [0m| || 6
[32;1m[Board] [0m  -------------------
[32;1m[Board] [0m5 || |[7;1m [0m| |[7;1m [0m|[30;1mp[0m|[7;1m [0m| |[7;1m [0m|| 5
[32;1m[Board] [0m  -------------------
[32;1m[Board] [0m4 ||[7;1m [0m| |[7;1m [0m| |[7;1m [0m| |[7;1m [0m| || 4
[32;1m[Board] [0m  -------------------
[32;1m[Board] [0m3 || |[7;1m [0m| |[7;1m [0m|[0;1mp[0m|[0;1mk[0m| |[0;1mp[0m|| 3
[32;1m[Board] [0m  -------------------
[32;1m[Board] [0m2 ||[0;1mp[0m|[0;1mp[0m|[0;1mp[0m|[0;1mp[0m|[7;1m [0m|[0;1mp[0m|[0;1mp[0m| || 2
[32;1m[Board] [0m  -------------------
[32;1m[Board] [0m1 ||[0;1mr[0m|[0;1mk[0m|[0;1mb[0m|[0;1mQ[0m|[0;1mK[0m|[0;1mb[0m| |[0;1mr[0m|| 1
[32;1m[Board] [0m  -------------------
[32;1m[Board] [0m    a b c d e f g h
[32;1m[Board] [0m
[32;1m[Referee] [0mThis is the turn of the Black player...

    a   b   c   d   e   f   g   h 
8 | r |   | b | q | k | b | n | r  | 8
7 | p | p | p | p |   | p | p | p  | 7
6 |   |   | n |   |   |   |   |    | 6
5 |   |   |   |   | p |   |   |    | 5
4 |   |   |   |   |   |   |   |    | 4
3 |   |   |   |   | P | N |   | P  | 3
2 | P | P | P | P |   | P | P |    | 2
1 | R | N | B | Q | K | B |   | R  | 1
    a   b   c   d   e   f   g   h 

next move: f8c5

[32;1m[Game] [0mPlayer's error code: 0
[32;1m[Game] [0mChecking move validity...
[32;1m[Board] [0mInitializing board...
[32;1m[Board] [0mLoading history file `championship/lizzie-iii-git-gambit/history.csv`...
[32;1m[Board] [0mLoaded 5 move(s).
[32;1m[Board] [0mLoading move file `championship/lizzie-iii-git-gambit/move.csv`...
[32;1m[Board] [0mBlack player is playing f8 to c5.
[32;1m[Board] [0m
[32;1m[Board] [0m    a b c d e f g h 
[32;1m[Board] [0m  -------------------
[32;1m[Board] [0m8 ||[30;1mr[0m| |[30;1mb[0m|[30;1mQ[0m|[30;1mK[0m| |[30;1mk[0m|[30;1mr[0m|| 8
[32;1m[Board] [0m  -------------------
[32;1m[Board] [0m7 ||[30;1mp[0m|[30;1mp[0m|[30;1mp[0m|[30;1mp[0m| |[30;1mp[0m|[30;1mp[0m|[30;1mp[0m|| 7
[32;1m[Board] [0m  -------------------
[32;1m[Board] [0m6 ||[7;1m [0m| |[30;1mk[0m| |[7;1m [0m| |[7;1m [0m| || 6
[32;1m[Board] [0m  -------------------
[32;1m[Board] [0m5 || |[7;1m [0m|[30;1mb[0m|[7;1m [0m|[30;1mp[0m|[7;1m [0m| |[7;1m [0m|| 5
[32;1m[Board] [0m  -------------------
[32;1m[Board] [0m4 ||[7;1m [0m| |[7;1m [0m| |[7;1m [0m| |[7;1m [0m| || 4
[32;1m[Board] [0m  -------------------
[32;1m[Board] [0m3 || |[7;1m [0m| |[7;1m [0m|[0;1mp[0m|[0;1mk[0m| |[0;1mp[0m|| 3
[32;1m[Board] [0m  -------------------
[32;1m[Board] [0m2 ||[0;1mp[0m|[0;1mp[0m|[0;1mp[0m|[0;1mp[0m|[7;1m [0m|[0;1mp[0m|[0;1mp[0m| || 2
[32;1m[Board] [0m  -------------------
[32;1m[Board] [0m1 ||[0;1mr[0m|[0;1mk[0m|[0;1mb[0m|[0;1mQ[0m|[0;1mK[0m|[0;1mb[0m| |[0;1mr[0m|| 1
[32;1m[Board] [0m  -------------------
[32;1m[Board] [0m    a b c d e f g h
[32;1m[Board] [0m
[32;1m[Referee] [0mThis is the turn of the White player...
Input file: championship/lizzie-iii-git-gambit/history.csv
Output file: championship/lizzie-iii-git-gambit/move.csv
Turn of: white
Succesful move
e2e3
8 | R N B Q K B N R 
7 | P P P P P P P P 
6 | _ _ _ _ _ _ _ _ 
5 | _ _ _ _ _ _ _ _ 
4 | _ _ _ _ _ _ _ _ 
3 | _ _ _ _ P _ _ _ 
2 | P P P P _ P P P 
1 | R N B Q K B N R 
-------------------
  | A B C D E F G H 

Turn of: black
Succesful move
e7e5
8 | R N B Q K B N R 
7 | P P P P _ P P P 
6 | _ _ _ _ _ _ _ _ 
5 | _ _ _ _ P _ _ _ 
4 | _ _ _ _ _ _ _ _ 
3 | _ _ _ _ P _ _ _ 
2 | P P P P _ P P P 
1 | R N B Q K B N R 
-------------------
  | A B C D E F G H 

Turn of: white
Succesful move
h2h3
8 | R N B Q K B N R 
7 | P P P P _ P P P 
6 | _ _ _ _ _ _ _ _ 
5 | _ _ _ _ P _ _ _ 
4 | _ _ _ _ _ _ _ _ 
3 | _ _ _ _ P _ _ P 
2 | P P P P _ P P _ 
1 | R N B Q K B N R 
-------------------
  | A B C D E F G H 

Turn of: black
Succesful move
b8c6
8 | R _ B Q K B N R 
7 | P P P P _ P P P 
6 | _ _ N _ _ _ _ _ 
5 | _ _ _ _ P _ _ _ 
4 | _ _ _ _ _ _ _ _ 
3 | _ _ _ _ P _ _ P 
2 | P P P P _ P P _ 
1 | R N B Q K B N R 
-------------------
  | A B C D E F G H 

Turn of: white
Succesful move
g1f3
8 | R _ B Q K B N R 
7 | P P P P _ P P P 
6 | _ _ N _ _ _ _ _ 
5 | _ _ _ _ P _ _ _ 
4 | _ _ _ _ _ _ _ _ 
3 | _ _ _ _ P N _ P 
2 | P P P P _ P P _ 
1 | R N B Q K B _ R 
-------------------
  | A B C D E F G H 

Turn of: black
Succesful move
f8c5
8 | R _ B Q K _ N R 
7 | P P P P _ P P P 
6 | _ _ N _ _ _ _ _ 
5 | _ _ B _ P _ _ _ 
4 | _ _ _ _ _ _ _ _ 
3 | _ _ _ _ P N _ P 
2 | P P P P _ P P _ 
1 | R N B Q K B _ R 
-------------------
  | A B C D E F G H 

We are playing as White
Move history:
e2e3
e7e5
h2h3
b8c6
g1f3
f8c5
8 | R _ B Q K _ N R 
7 | P P P P _ P P P 
6 | _ _ N _ _ _ _ _ 
5 | _ _ B _ P _ _ _ 
4 | _ _ _ _ _ _ _ _ 
3 | _ _ _ _ P N _ P 
2 | P P P P _ P P _ 
1 | R N B Q K B _ R 
-------------------
  | A B C D E F G H 

It is white's turn to play.
AI's move: g2g4
Move written: g2g4
[32;1m[Game] [0mPlayer's error code: 0
[32;1m[Game] [0mChecking move validity...
[32;1m[Board] [0mInitializing board...
[32;1m[Board] [0mLoading history file `championship/lizzie-iii-git-gambit/history.csv`...
[32;1m[Board] [0mLoaded 6 move(s).
[32;1m[Board] [0mLoading move file `championship/lizzie-iii-git-gambit/move.csv`...
[32;1m[Board] [0mWhite player is playing g2 to g4.
[32;1m[Board] [0m
[32;1m[Board] [0m    a b c d e f g h 
[32;1m[Board] [0m  -------------------
[32;1m[Board] [0m8 ||[30;1mr[0m| |[30;1mb[0m|[30;1mQ[0m|[30;1mK[0m| |[30;1mk[0m|[30;1mr[0m|| 8
[32;1m[Board] [0m  -------------------
[32;1m[Board] [0m7 ||[30;1mp[0m|[30;1mp[0m|[30;1mp[0m|[30;1mp[0m| |[30;1mp[0m|[30;1mp[0m|[30;1mp[0m|| 7
[32;1m[Board] [0m  -------------------
[32;1m[Board] [0m6 ||[7;1m [0m| |[30;1mk[0m| |[7;1m [0m| |[7;1m [0m| || 6
[32;1m[Board] [0m  -------------------
[32;1m[Board] [0m5 || |[7;1m [0m|[30;1mb[0m|[7;1m [0m|[30;1mp[0m|[7;1m [0m| |[7;1m [0m|| 5
[32;1m[Board] [0m  -------------------
[32;1m[Board] [0m4 ||[7;1m [0m| |[7;1m [0m| |[7;1m [0m| |[0;1mp[0m| || 4
[32;1m[Board] [0m  -------------------
[32;1m[Board] [0m3 || |[7;1m [0m| |[7;1m [0m|[0;1mp[0m|[0;1mk[0m| |[0;1mp[0m|| 3
[32;1m[Board] [0m  -------------------
[32;1m[Board] [0m2 ||[0;1mp[0m|[0;1mp[0m|[0;1mp[0m|[0;1mp[0m|[7;1m [0m|[0;1mp[0m|[7;1m [0m| || 2
[32;1m[Board] [0m  -------------------
[32;1m[Board] [0m1 ||[0;1mr[0m|[0;1mk[0m|[0;1mb[0m|[0;1mQ[0m|[0;1mK[0m|[0;1mb[0m| |[0;1mr[0m|| 1
[32;1m[Board] [0m  -------------------
[32;1m[Board] [0m    a b c d e f g h
[32;1m[Board] [0m
[32;1m[Referee] [0mThis is the turn of the Black player...

    a   b   c   d   e   f   g   h 
8 | r |   | b | q | k |   | n | r  | 8
7 | p | p | p | p |   | p | p | p  | 7
6 |   |   | n |   |   |   |   |    | 6
5 |   |   | b |   | p |   |   |    | 5
4 |   |   |   |   |   |   | P |    | 4
3 |   |   |   |   | P | N |   | P  | 3
2 | P | P | P | P |   | P |   |    | 2
1 | R | N | B | Q | K | B |   | R  | 1
    a   b   c   d   e   f   g   h 

next move: c5e3

[32;1m[Game] [0mPlayer's error code: 0
[32;1m[Game] [0mChecking move validity...
[32;1m[Board] [0mInitializing board...
[32;1m[Board] [0mLoading history file `championship/lizzie-iii-git-gambit/history.csv`...
[32;1m[Board] [0mLoaded 7 move(s).
[32;1m[Board] [0mLoading move file `championship/lizzie-iii-git-gambit/move.csv`...
[32;1m[Board] [0mBlack player is playing c5 to e3.
[32;1m[Board] [0m[5;1mBlack Bishop is taking White Pawn.[0m
[32;1m[Board] [0m
[32;1m[Board] [0m    a b c d e f g h 
[32;1m[Board] [0m  -------------------
[32;1m[Board] [0m8 ||[30;1mr[0m| |[30;1mb[0m|[30;1mQ[0m|[30;1mK[0m| |[30;1mk[0m|[30;1mr[0m|| 8
[32;1m[Board] [0m  -------------------
[32;1m[Board] [0m7 ||[30;1mp[0m|[30;1mp[0m|[30;1mp[0m|[30;1mp[0m| |[30;1mp[0m|[30;1mp[0m|[30;1mp[0m|| 7
[32;1m[Board] [0m  -------------------
[32;1m[Board] [0m6 ||[7;1m [0m| |[30;1mk[0m| |[7;1m [0m| |[7;1m [0m| || 6
[32;1m[Board] [0m  -------------------
[32;1m[Board] [0m5 || |[7;1m [0m| |[7;1m [0m|[30;1mp[0m|[7;1m [0m| |[7;1m [0m|| 5
[32;1m[Board] [0m  -------------------
[32;1m[Board] [0m4 ||[7;1m [0m| |[7;1m [0m| |[7;1m [0m| |[0;1mp[0m| || 4
[32;1m[Board] [0m  -------------------
[32;1m[Board] [0m3 || |[7;1m [0m| |[7;1m [0m|[30;1mb[0m|[0;1mk[0m| |[0;1mp[0m|| 3
[32;1m[Board] [0m  -------------------
[32;1m[Board] [0m2 ||[0;1mp[0m|[0;1mp[0m|[0;1mp[0m|[0;1mp[0m|[7;1m [0m|[0;1mp[0m|[7;1m [0m| || 2
[32;1m[Board] [0m  -------------------
[32;1m[Board] [0m1 ||[0;1mr[0m|[0;1mk[0m|[0;1mb[0m|[0;1mQ[0m|[0;1mK[0m|[0;1mb[0m| |[0;1mr[0m|| 1
[32;1m[Board] [0m  -------------------
[32;1m[Board] [0m    a b c d e f g h
[32;1m[Board] [0m
[32;1m[Referee] [0mThis is the turn of the White player...
Input file: championship/lizzie-iii-git-gambit/history.csv
Output file: championship/lizzie-iii-git-gambit/move.csv
Turn of: white
Succesful move
e2e3
8 | R N B Q K B N R 
7 | P P P P P P P P 
6 | _ _ _ _ _ _ _ _ 
5 | _ _ _ _ _ _ _ _ 
4 | _ _ _ _ _ _ _ _ 
3 | _ _ _ _ P _ _ _ 
2 | P P P P _ P P P 
1 | R N B Q K B N R 
-------------------
  | A B C D E F G H 

Turn of: black
Succesful move
e7e5
8 | R N B Q K B N R 
7 | P P P P _ P P P 
6 | _ _ _ _ _ _ _ _ 
5 | _ _ _ _ P _ _ _ 
4 | _ _ _ _ _ _ _ _ 
3 | _ _ _ _ P _ _ _ 
2 | P P P P _ P P P 
1 | R N B Q K B N R 
-------------------
  | A B C D E F G H 

Turn of: white
Succesful move
h2h3
8 | R N B Q K B N R 
7 | P P P P _ P P P 
6 | _ _ _ _ _ _ _ _ 
5 | _ _ _ _ P _ _ _ 
4 | _ _ _ _ _ _ _ _ 
3 | _ _ _ _ P _ _ P 
2 | P P P P _ P P _ 
1 | R N B Q K B N R 
-------------------
  | A B C D E F G H 

Turn of: black
Succesful move
b8c6
8 | R _ B Q K B N R 
7 | P P P P _ P P P 
6 | _ _ N _ _ _ _ _ 
5 | _ _ _ _ P _ _ _ 
4 | _ _ _ _ _ _ _ _ 
3 | _ _ _ _ P _ _ P 
2 | P P P P _ P P _ 
1 | R N B Q K B N R 
-------------------
  | A B C D E F G H 

Turn of: white
Succesful move
g1f3
8 | R _ B Q K B N R 
7 | P P P P _ P P P 
6 | _ _ N _ _ _ _ _ 
5 | _ _ _ _ P _ _ _ 
4 | _ _ _ _ _ _ _ _ 
3 | _ _ _ _ P N _ P 
2 | P P P P _ P P _ 
1 | R N B Q K B _ R 
-------------------
  | A B C D E F G H 

Turn of: black
Succesful move
f8c5
8 | R _ B Q K _ N R 
7 | P P P P _ P P P 
6 | _ _ N _ _ _ _ _ 
5 | _ _ B _ P _ _ _ 
4 | _ _ _ _ _ _ _ _ 
3 | _ _ _ _ P N _ P 
2 | P P P P _ P P _ 
1 | R N B Q K B _ R 
-------------------
  | A B C D E F G H 

Turn of: white
Succesful move
g2g4
8 | R _ B Q K _ N R 
7 | P P P P _ P P P 
6 | _ _ N _ _ _ _ _ 
5 | _ _ B _ P _ _ _ 
4 | _ _ _ _ _ _ P _ 
3 | _ _ _ _ P N _ P 
2 | P P P P _ P _ _ 
1 | R N B Q K B _ R 
-------------------
  | A B C D E F G H 

Turn of: black
Succesful move
c5e3
8 | R _ B Q K _ N R 
7 | P P P P _ P P P 
6 | _ _ N _ _ _ _ _ 
5 | _ _ _ _ P _ _ _ 
4 | _ _ _ _ _ _ P _ 
3 | _ _ _ _ B N _ P 
2 | P P P P _ P _ _ 
1 | R N B Q K B _ R 
-------------------
  | A B C D E F G H 

We are playing as White
Move history:
e2e3
e7e5
h2h3
b8c6
g1f3
f8c5
g2g4
c5e3
8 | R _ B Q K _ N R 
7 | P P P P _ P P P 
6 | _ _ N _ _ _ _ _ 
5 | _ _ _ _ P _ _ _ 
4 | _ _ _ _ _ _ P _ 
3 | _ _ _ _ B N _ P 
2 | P P P P _ P _ _ 
1 | R N B Q K B _ R 
-------------------
  | A B C D E F G H 

It is white's turn to play.
AI's move: f1a6
Move written: f1a6
[32;1m[Game] [0mPlayer's error code: 0
[32;1m[Game] [0mChecking move validity...
[32;1m[Board] [0mInitializing board...
[32;1m[Board] [0mLoading history file `championship/lizzie-iii-git-gambit/history.csv`...
[32;1m[Board] [0mLoaded 8 move(s).
[32;1m[Board] [0mLoading move file `championship/lizzie-iii-git-gambit/move.csv`...
[32;1m[Board] [0mWhite player is playing f1 to a6.
[32;1m[Board] [0m
[32;1m[Board] [0m    a b c d e f g h 
[32;1m[Board] [0m  -------------------
[32;1m[Board] [0m8 ||[30;1mr[0m| |[30;1mb[0m|[30;1mQ[0m|[30;1mK[0m| |[30;1mk[0m|[30;1mr[0m|| 8
[32;1m[Board] [0m  -------------------
[32;1m[Board] [0m7 ||[30;1mp[0m|[30;1mp[0m|[30;1mp[0m|[30;1mp[0m| |[30;1mp[0m|[30;1mp[0m|[30;1mp[0m|| 7
[32;1m[Board] [0m  -------------------
[32;1m[Board] [0m6 ||[0;1mb[0m| |[30;1mk[0m| |[7;1m [0m| |[7;1m [0m| || 6
[32;1m[Board] [0m  -------------------
[32;1m[Board] [0m5 || |[7;1m [0m| |[7;1m [0m|[30;1mp[0m|[7;1m [0m| |[7;1m [0m|| 5
[32;1m[Board] [0m  -------------------
[32;1m[Board] [0m4 ||[7;1m [0m| |[7;1m [0m| |[7;1m [0m| |[0;1mp[0m| || 4
[32;1m[Board] [0m  -------------------
[32;1m[Board] [0m3 || |[7;1m [0m| |[7;1m [0m|[30;1mb[0m|[0;1mk[0m| |[0;1mp[0m|| 3
[32;1m[Board] [0m  -------------------
[32;1m[Board] [0m2 ||[0;1mp[0m|[0;1mp[0m|[0;1mp[0m|[0;1mp[0m|[7;1m [0m|[0;1mp[0m|[7;1m [0m| || 2
[32;1m[Board] [0m  -------------------
[32;1m[Board] [0m1 ||[0;1mr[0m|[0;1mk[0m|[0;1mb[0m|[0;1mQ[0m|[0;1mK[0m|[7;1m [0m| |[0;1mr[0m|| 1
[32;1m[Board] [0m  -------------------
[32;1m[Board] [0m    a b c d e f g h
[32;1m[Board] [0m
[32;1m[Referee] [0mThis is the turn of the Black player...

    a   b   c   d   e   f   g   h 
8 | r |   | b | q | k |   | n | r  | 8
7 | p | p | p | p |   | p | p | p  | 7
6 | B |   | n |   |   |   |   |    | 6
5 |   |   |   |   | p |   |   |    | 5
4 |   |   |   |   |   |   | P |    | 4
3 |   |   |   |   | b | N |   | P  | 3
2 | P | P | P | P |   | P |   |    | 2
1 | R | N | B | Q | K |   |   | R  | 1
    a   b   c   d   e   f   g   h 

next move: b7a6

[32;1m[Game] [0mPlayer's error code: 0
[32;1m[Game] [0mChecking move validity...
[32;1m[Board] [0mInitializing board...
[32;1m[Board] [0mLoading history file `championship/lizzie-iii-git-gambit/history.csv`...
[32;1m[Board] [0mLoaded 9 move(s).
[32;1m[Board] [0mLoading move file `championship/lizzie-iii-git-gambit/move.csv`...
[32;1m[Board] [0mBlack player is playing b7 to a6.
[32;1m[Board] [0m[5;1mBlack Pawn is taking White Bishop.[0m
[32;1m[Board] [0m
[32;1m[Board] [0m    a b c d e f g h 
[32;1m[Board] [0m  -------------------
[32;1m[Board] [0m8 ||[30;1mr[0m| |[30;1mb[0m|[30;1mQ[0m|[30;1mK[0m| |[30;1mk[0m|[30;1mr[0m|| 8
[32;1m[Board] [0m  -------------------
[32;1m[Board] [0m7 ||[30;1mp[0m|[7;1m [0m|[30;1mp[0m|[30;1mp[0m| |[30;1mp[0m|[30;1mp[0m|[30;1mp[0m|| 7
[32;1m[Board] [0m  -------------------
[32;1m[Board] [0m6 ||[30;1mp[0m| |[30;1mk[0m| |[7;1m [0m| |[7;1m [0m| || 6
[32;1m[Board] [0m  -------------------
[32;1m[Board] [0m5 || |[7;1m [0m| |[7;1m [0m|[30;1mp[0m|[7;1m [0m| |[7;1m [0m|| 5
[32;1m[Board] [0m  -------------------
[32;1m[Board] [0m4 ||[7;1m [0m| |[7;1m [0m| |[7;1m [0m| |[0;1mp[0m| || 4
[32;1m[Board] [0m  -------------------
[32;1m[Board] [0m3 || |[7;1m [0m| |[7;1m [0m|[30;1mb[0m|[0;1mk[0m| |[0;1mp[0m|| 3
[32;1m[Board] [0m  -------------------
[32;1m[Board] [0m2 ||[0;1mp[0m|[0;1mp[0m|[0;1mp[0m|[0;1mp[0m|[7;1m [0m|[0;1mp[0m|[7;1m [0m| || 2
[32;1m[Board] [0m  -------------------
[32;1m[Board] [0m1 ||[0;1mr[0m|[0;1mk[0m|[0;1mb[0m|[0;1mQ[0m|[0;1mK[0m|[7;1m [0m| |[0;1mr[0m|| 1
[32;1m[Board] [0m  -------------------
[32;1m[Board] [0m    a b c d e f g h
[32;1m[Board] [0m
[32;1m[Referee] [0mThis is the turn of the White player...
Input file: championship/lizzie-iii-git-gambit/history.csv
Output file: championship/lizzie-iii-git-gambit/move.csv
Turn of: white
Succesful move
e2e3
8 | R N B Q K B N R 
7 | P P P P P P P P 
6 | _ _ _ _ _ _ _ _ 
5 | _ _ _ _ _ _ _ _ 
4 | _ _ _ _ _ _ _ _ 
3 | _ _ _ _ P _ _ _ 
2 | P P P P _ P P P 
1 | R N B Q K B N R 
-------------------
  | A B C D E F G H 

Turn of: black
Succesful move
e7e5
8 | R N B Q K B N R 
7 | P P P P _ P P P 
6 | _ _ _ _ _ _ _ _ 
5 | _ _ _ _ P _ _ _ 
4 | _ _ _ _ _ _ _ _ 
3 | _ _ _ _ P _ _ _ 
2 | P P P P _ P P P 
1 | R N B Q K B N R 
-------------------
  | A B C D E F G H 

Turn of: white
Succesful move
h2h3
8 | R N B Q K B N R 
7 | P P P P _ P P P 
6 | _ _ _ _ _ _ _ _ 
5 | _ _ _ _ P _ _ _ 
4 | _ _ _ _ _ _ _ _ 
3 | _ _ _ _ P _ _ P 
2 | P P P P _ P P _ 
1 | R N B Q K B N R 
-------------------
  | A B C D E F G H 

Turn of: black
Succesful move
b8c6
8 | R _ B Q K B N R 
7 | P P P P _ P P P 
6 | _ _ N _ _ _ _ _ 
5 | _ _ _ _ P _ _ _ 
4 | _ _ _ _ _ _ _ _ 
3 | _ _ _ _ P _ _ P 
2 | P P P P _ P P _ 
1 | R N B Q K B N R 
-------------------
  | A B C D E F G H 

Turn of: white
Succesful move
g1f3
8 | R _ B Q K B N R 
7 | P P P P _ P P P 
6 | _ _ N _ _ _ _ _ 
5 | _ _ _ _ P _ _ _ 
4 | _ _ _ _ _ _ _ _ 
3 | _ _ _ _ P N _ P 
2 | P P P P _ P P _ 
1 | R N B Q K B _ R 
-------------------
  | A B C D E F G H 

Turn of: black
Succesful move
f8c5
8 | R _ B Q K _ N R 
7 | P P P P _ P P P 
6 | _ _ N _ _ _ _ _ 
5 | _ _ B _ P _ _ _ 
4 | _ _ _ _ _ _ _ _ 
3 | _ _ _ _ P N _ P 
2 | P P P P _ P P _ 
1 | R N B Q K B _ R 
-------------------
  | A B C D E F G H 

Turn of: white
Succesful move
g2g4
8 | R _ B Q K _ N R 
7 | P P P P _ P P P 
6 | _ _ N _ _ _ _ _ 
5 | _ _ B _ P _ _ _ 
4 | _ _ _ _ _ _ P _ 
3 | _ _ _ _ P N _ P 
2 | P P P P _ P _ _ 
1 | R N B Q K B _ R 
-------------------
  | A B C D E F G H 

Turn of: black
Succesful move
c5e3
8 | R _ B Q K _ N R 
7 | P P P P _ P P P 
6 | _ _ N _ _ _ _ _ 
5 | _ _ _ _ P _ _ _ 
4 | _ _ _ _ _ _ P _ 
3 | _ _ _ _ B N _ P 
2 | P P P P _ P _ _ 
1 | R N B Q K B _ R 
-------------------
  | A B C D E F G H 

Turn of: white
Succesful move
f1a6
8 | R _ B Q K _ N R 
7 | P P P P _ P P P 
6 | B _ N _ _ _ _ _ 
5 | _ _ _ _ P _ _ _ 
4 | _ _ _ _ _ _ P _ 
3 | _ _ _ _ B N _ P 
2 | P P P P _ P _ _ 
1 | R N B Q K _ _ R 
-------------------
  | A B C D E F G H 

Turn of: black
Succesful move
b7a6
8 | R _ B Q K _ N R 
7 | P _ P P _ P P P 
6 | P _ N _ _ _ _ _ 
5 | _ _ _ _ P _ _ _ 
4 | _ _ _ _ _ _ P _ 
3 | _ _ _ _ B N _ P 
2 | P P P P _ P _ _ 
1 | R N B Q K _ _ R 
-------------------
  | A B C D E F G H 

We are playing as White
Move history:
e2e3
e7e5
h2h3
b8c6
g1f3
f8c5
g2g4
c5e3
f1a6
b7a6
8 | R _ B Q K _ N R 
7 | P _ P P _ P P P 
6 | P _ N _ _ _ _ _ 
5 | _ _ _ _ P _ _ _ 
4 | _ _ _ _ _ _ P _ 
3 | _ _ _ _ B N _ P 
2 | P P P P _ P _ _ 
1 | R N B Q K _ _ R 
-------------------
  | A B C D E F G H 

It is white's turn to play.
AI's move: h1g1
Move written: h1g1
[32;1m[Game] [0mPlayer's error code: 0
[32;1m[Game] [0mChecking move validity...
[32;1m[Board] [0mInitializing board...
[32;1m[Board] [0mLoading history file `championship/lizzie-iii-git-gambit/history.csv`...
[32;1m[Board] [0mLoaded 10 move(s).
[32;1m[Board] [0mLoading move file `championship/lizzie-iii-git-gambit/move.csv`...
[32;1m[Board] [0mWhite player is playing h1 to g1.
[32;1m[Board] [0m
[32;1m[Board] [0m    a b c d e f g h 
[32;1m[Board] [0m  -------------------
[32;1m[Board] [0m8 ||[30;1mr[0m| |[30;1mb[0m|[30;1mQ[0m|[30;1mK[0m| |[30;1mk[0m|[30;1mr[0m|| 8
[32;1m[Board] [0m  -------------------
[32;1m[Board] [0m7 ||[30;1mp[0m|[7;1m [0m|[30;1mp[0m|[30;1mp[0m| |[30;1mp[0m|[30;1mp[0m|[30;1mp[0m|| 7
[32;1m[Board] [0m  -------------------
[32;1m[Board] [0m6 ||[30;1mp[0m| |[30;1mk[0m| |[7;1m [0m| |[7;1m [0m| || 6
[32;1m[Board] [0m  -------------------
[32;1m[Board] [0m5 || |[7;1m [0m| |[7;1m [0m|[30;1mp[0m|[7;1m [0m| |[7;1m [0m|| 5
[32;1m[Board] [0m  -------------------
[32;1m[Board] [0m4 ||[7;1m [0m| |[7;1m [0m| |[7;1m [0m| |[0;1mp[0m| || 4
[32;1m[Board] [0m  -------------------
[32;1m[Board] [0m3 || |[7;1m [0m| |[7;1m [0m|[30;1mb[0m|[0;1mk[0m| |[0;1mp[0m|| 3
[32;1m[Board] [0m  -------------------
[32;1m[Board] [0m2 ||[0;1mp[0m|[0;1mp[0m|[0;1mp[0m|[0;1mp[0m|[7;1m [0m|[0;1mp[0m|[7;1m [0m| || 2
[32;1m[Board] [0m  -------------------
[32;1m[Board] [0m1 ||[0;1mr[0m|[0;1mk[0m|[0;1mb[0m|[0;1mQ[0m|[0;1mK[0m|[7;1m [0m|[0;1mr[0m|[7;1m [0m|| 1
[32;1m[Board] [0m  -------------------
[32;1m[Board] [0m    a b c d e f g h
[32;1m[Board] [0m
[32;1m[Referee] [0mThis is the turn of the Black player...

    a   b   c   d   e   f   g   h 
8 | r |   | b | q | k |   | n | r  | 8
7 | p |   | p | p |   | p | p | p  | 7
6 | p |   | n |   |   |   |   |    | 6
5 |   |   |   |   | p |   |   |    | 5
4 |   |   |   |   |   |   | P |    | 4
3 |   |   |   |   | b | N |   | P  | 3
2 | P | P | P | P |   | P |   |    | 2
1 | R | N | B | Q | K |   | R |    | 1
    a   b   c   d   e   f   g   h 

next move: e3d2

[32;1m[Game] [0mPlayer's error code: 0
[32;1m[Game] [0mChecking move validity...
[32;1m[Board] [0mInitializing board...
[32;1m[Board] [0mLoading history file `championship/lizzie-iii-git-gambit/history.csv`...
[32;1m[Board] [0mLoaded 11 move(s).
[32;1m[Board] [0mLoading move file `championship/lizzie-iii-git-gambit/move.csv`...
[32;1m[Board] [0mBlack player is playing e3 to d2.
[32;1m[Board] [0m[5;1mBlack Bishop is taking White Pawn.[0m
[32;1m[Board] [0m
[32;1m[Board] [0m    a b c d e f g h 
[32;1m[Board] [0m  -------------------
[32;1m[Board] [0m8 ||[30;1mr[0m| |[30;1mb[0m|[30;1mQ[0m|[30;1mK[0m| |[30;1mk[0m|[30;1mr[0m|| 8
[32;1m[Board] [0m  -------------------
[32;1m[Board] [0m7 ||[30;1mp[0m|[7;1m [0m|[30;1mp[0m|[30;1mp[0m| |[30;1mp[0m|[30;1mp[0m|[30;1mp[0m|| 7
[32;1m[Board] [0m  -------------------
[32;1m[Board] [0m6 ||[30;1mp[0m| |[30;1mk[0m| |[7;1m [0m| |[7;1m [0m| || 6
[32;1m[Board] [0m  -------------------
[32;1m[Board] [0m5 || |[7;1m [0m| |[7;1m [0m|[30;1mp[0m|[7;1m [0m| |[7;1m [0m|| 5
[32;1m[Board] [0m  -------------------
[32;1m[Board] [0m4 ||[7;1m [0m| |[7;1m [0m| |[7;1m [0m| |[0;1mp[0m| || 4
[32;1m[Board] [0m  -------------------
[32;1m[Board] [0m3 || |[7;1m [0m| |[7;1m [0m| |[0;1mk[0m| |[0;1mp[0m|| 3
[32;1m[Board] [0m  -------------------
[32;1m[Board] [0m2 ||[0;1mp[0m|[0;1mp[0m|[0;1mp[0m|[30;1mb[0m|[7;1m [0m|[0;1mp[0m|[7;1m [0m| || 2
[32;1m[Board] [0m  -------------------
[32;1m[Board] [0m1 ||[0;1mr[0m|[0;1mk[0m|[0;1mb[0m|[0;1mQ[0m|[0;1mK[0m|[7;1m [0m|[0;1mr[0m|[7;1m [0m|| 1
[32;1m[Board] [0m  -------------------
[32;1m[Board] [0m    a b c d e f g h
[32;1m[Board] [0m
[32;1m[Referee] [0mThis is the turn of the White player...
[32;1m[Board] [0m[33;1m[WARNING][0m [5;1mWhite King in check![0m
[32;1m[Board] [0m[33;1m[WARNING][0m    Threatened by Black Bishop (d2)
Input file: championship/lizzie-iii-git-gambit/history.csv
Output file: championship/lizzie-iii-git-gambit/move.csv
Turn of: white
Succesful move
e2e3
8 | R N B Q K B N R 
7 | P P P P P P P P 
6 | _ _ _ _ _ _ _ _ 
5 | _ _ _ _ _ _ _ _ 
4 | _ _ _ _ _ _ _ _ 
3 | _ _ _ _ P _ _ _ 
2 | P P P P _ P P P 
1 | R N B Q K B N R 
-------------------
  | A B C D E F G H 

Turn of: black
Succesful move
e7e5
8 | R N B Q K B N R 
7 | P P P P _ P P P 
6 | _ _ _ _ _ _ _ _ 
5 | _ _ _ _ P _ _ _ 
4 | _ _ _ _ _ _ _ _ 
3 | _ _ _ _ P _ _ _ 
2 | P P P P _ P P P 
1 | R N B Q K B N R 
-------------------
  | A B C D E F G H 

Turn of: white
Succesful move
h2h3
8 | R N B Q K B N R 
7 | P P P P _ P P P 
6 | _ _ _ _ _ _ _ _ 
5 | _ _ _ _ P _ _ _ 
4 | _ _ _ _ _ _ _ _ 
3 | _ _ _ _ P _ _ P 
2 | P P P P _ P P _ 
1 | R N B Q K B N R 
-------------------
  | A B C D E F G H 

Turn of: black
Succesful move
b8c6
8 | R _ B Q K B N R 
7 | P P P P _ P P P 
6 | _ _ N _ _ _ _ _ 
5 | _ _ _ _ P _ _ _ 
4 | _ _ _ _ _ _ _ _ 
3 | _ _ _ _ P _ _ P 
2 | P P P P _ P P _ 
1 | R N B Q K B N R 
-------------------
  | A B C D E F G H 

Turn of: white
Succesful move
g1f3
8 | R _ B Q K B N R 
7 | P P P P _ P P P 
6 | _ _ N _ _ _ _ _ 
5 | _ _ _ _ P _ _ _ 
4 | _ _ _ _ _ _ _ _ 
3 | _ _ _ _ P N _ P 
2 | P P P P _ P P _ 
1 | R N B Q K B _ R 
-------------------
  | A B C D E F G H 

Turn of: black
Succesful move
f8c5
8 | R _ B Q K _ N R 
7 | P P P P _ P P P 
6 | _ _ N _ _ _ _ _ 
5 | _ _ B _ P _ _ _ 
4 | _ _ _ _ _ _ _ _ 
3 | _ _ _ _ P N _ P 
2 | P P P P _ P P _ 
1 | R N B Q K B _ R 
-------------------
  | A B C D E F G H 

Turn of: white
Succesful move
g2g4
8 | R _ B Q K _ N R 
7 | P P P P _ P P P 
6 | _ _ N _ _ _ _ _ 
5 | _ _ B _ P _ _ _ 
4 | _ _ _ _ _ _ P _ 
3 | _ _ _ _ P N _ P 
2 | P P P P _ P _ _ 
1 | R N B Q K B _ R 
-------------------
  | A B C D E F G H 

Turn of: black
Succesful move
c5e3
8 | R _ B Q K _ N R 
7 | P P P P _ P P P 
6 | _ _ N _ _ _ _ _ 
5 | _ _ _ _ P _ _ _ 
4 | _ _ _ _ _ _ P _ 
3 | _ _ _ _ B N _ P 
2 | P P P P _ P _ _ 
1 | R N B Q K B _ R 
-------------------
  | A B C D E F G H 

Turn of: white
Succesful move
f1a6
8 | R _ B Q K _ N R 
7 | P P P P _ P P P 
6 | B _ N _ _ _ _ _ 
5 | _ _ _ _ P _ _ _ 
4 | _ _ _ _ _ _ P _ 
3 | _ _ _ _ B N _ P 
2 | P P P P _ P _ _ 
1 | R N B Q K _ _ R 
-------------------
  | A B C D E F G H 

Turn of: black
Succesful move
b7a6
8 | R _ B Q K _ N R 
7 | P _ P P _ P P P 
6 | P _ N _ _ _ _ _ 
5 | _ _ _ _ P _ _ _ 
4 | _ _ _ _ _ _ P _ 
3 | _ _ _ _ B N _ P 
2 | P P P P _ P _ _ 
1 | R N B Q K _ _ R 
-------------------
  | A B C D E F G H 

Turn of: white
Succesful move
h1g1
8 | R _ B Q K _ N R 
7 | P _ P P _ P P P 
6 | P _ N _ _ _ _ _ 
5 | _ _ _ _ P _ _ _ 
4 | _ _ _ _ _ _ P _ 
3 | _ _ _ _ B N _ P 
2 | P P P P _ P _ _ 
1 | R N B Q K _ R _ 
-------------------
  | A B C D E F G H 

Turn of: black
Succesful move
e3d2
8 | R _ B Q K _ N R 
7 | P _ P P _ P P P 
6 | P _ N _ _ _ _ _ 
5 | _ _ _ _ P _ _ _ 
4 | _ _ _ _ _ _ P _ 
3 | _ _ _ _ _ N _ P 
2 | P P P B _ P _ _ 
1 | R N B Q K _ R _ 
-------------------
  | A B C D E F G H 

We are playing as White
Move history:
e2e3
e7e5
h2h3
b8c6
g1f3
f8c5
g2g4
c5e3
f1a6
b7a6
h1g1
e3d2
8 | R _ B Q K _ N R 
7 | P _ P P _ P P P 
6 | P _ N _ _ _ _ _ 
5 | _ _ _ _ P _ _ _ 
4 | _ _ _ _ _ _ P _ 
3 | _ _ _ _ _ N _ P 
2 | P P P B _ P _ _ 
1 | R N B Q K _ R _ 
-------------------
  | A B C D E F G H 

It is white's turn to play.
AI's move: d1d2
Move written: d1d2
[32;1m[Game] [0mPlayer's error code: 0
[32;1m[Game] [0mChecking move validity...
[32;1m[Board] [0mInitializing board...
[32;1m[Board] [0mLoading history file `championship/lizzie-iii-git-gambit/history.csv`...
[32;1m[Board] [0mLoaded 12 move(s).
[32;1m[Board] [0mLoading move file `championship/lizzie-iii-git-gambit/move.csv`...
[32;1m[Board] [0mWhite player is playing d1 to d2.
[32;1m[Board] [0m[5;1mWhite Queen is taking Black Bishop.[0m
[32;1m[Board] [0m
[32;1m[Board] [0m    a b c d e f g h 
[32;1m[Board] [0m  -------------------
[32;1m[Board] [0m8 ||[30;1mr[0m| |[30;1mb[0m|[30;1mQ[0m|[30;1mK[0m| |[30;1mk[0m|[30;1mr[0m|| 8
[32;1m[Board] [0m  -------------------
[32;1m[Board] [0m7 ||[30;1mp[0m|[7;1m [0m|[30;1mp[0m|[30;1mp[0m| |[30;1mp[0m|[30;1mp[0m|[30;1mp[0m|| 7
[32;1m[Board] [0m  -------------------
[32;1m[Board] [0m6 ||[30;1mp[0m| |[30;1mk[0m| |[7;1m [0m| |[7;1m [0m| || 6
[32;1m[Board] [0m  -------------------
[32;1m[Board] [0m5 || |[7;1m [0m| |[7;1m [0m|[30;1mp[0m|[7;1m [0m| |[7;1m [0m|| 5
[32;1m[Board] [0m  -------------------
[32;1m[Board] [0m4 ||[7;1m [0m| |[7;1m [0m| |[7;1m [0m| |[0;1mp[0m| || 4
[32;1m[Board] [0m  -------------------
[32;1m[Board] [0m3 || |[7;1m [0m| |[7;1m [0m| |[0;1mk[0m| |[0;1mp[0m|| 3
[32;1m[Board] [0m  -------------------
[32;1m[Board] [0m2 ||[0;1mp[0m|[0;1mp[0m|[0;1mp[0m|[0;1mQ[0m|[7;1m [0m|[0;1mp[0m|[7;1m [0m| || 2
[32;1m[Board] [0m  -------------------
[32;1m[Board] [0m1 ||[0;1mr[0m|[0;1mk[0m|[0;1mb[0m|[7;1m [0m|[0;1mK[0m|[7;1m [0m|[0;1mr[0m|[7;1m [0m|| 1
[32;1m[Board] [0m  -------------------
[32;1m[Board] [0m    a b c d e f g h
[32;1m[Board] [0m
[32;1m[Referee] [0mThis is the turn of the Black player...

    a   b   c   d   e   f   g   h 
8 | r |   | b | q | k |   | n | r  | 8
7 | p |   | p | p |   | p | p | p  | 7
6 | p |   | n |   |   |   |   |    | 6
5 |   |   |   |   | p |   |   |    | 5
4 |   |   |   |   |   |   | P |    | 4
3 |   |   |   |   |   | N |   | P  | 3
2 | P | P | P | Q |   | P |   |    | 2
1 | R | N | B |   | K |   | R |    | 1
    a   b   c   d   e   f   g   h 

next move: d8e7

[32;1m[Game] [0mPlayer's error code: 0
[32;1m[Game] [0mChecking move validity...
[32;1m[Board] [0mInitializing board...
[32;1m[Board] [0mLoading history file `championship/lizzie-iii-git-gambit/history.csv`...
[32;1m[Board] [0mLoaded 13 move(s).
[32;1m[Board] [0mLoading move file `championship/lizzie-iii-git-gambit/move.csv`...
[32;1m[Board] [0mBlack player is playing d8 to e7.
[32;1m[Board] [0m
[32;1m[Board] [0m    a b c d e f g h 
[32;1m[Board] [0m  -------------------
[32;1m[Board] [0m8 ||[30;1mr[0m| |[30;1mb[0m| |[30;1mK[0m| |[30;1mk[0m|[30;1mr[0m|| 8
[32;1m[Board] [0m  -------------------
[32;1m[Board] [0m7 ||[30;1mp[0m|[7;1m [0m|[30;1mp[0m|[30;1mp[0m|[30;1mQ[0m|[30;1mp[0m|[30;1mp[0m|[30;1mp[0m|| 7
[32;1m[Board] [0m  -------------------
[32;1m[Board] [0m6 ||[30;1mp[0m| |[30;1mk[0m| |[7;1m [0m| |[7;1m [0m| || 6
[32;1m[Board] [0m  -------------------
[32;1m[Board] [0m5 || |[7;1m [0m| |[7;1m [0m|[30;1mp[0m|[7;1m [0m| |[7;1m [0m|| 5
[32;1m[Board] [0m  -------------------
[32;1m[Board] [0m4 ||[7;1m [0m| |[7;1m [0m| |[7;1m [0m| |[0;1mp[0m| || 4
[32;1m[Board] [0m  -------------------
[32;1m[Board] [0m3 || |[7;1m [0m| |[7;1m [0m| |[0;1mk[0m| |[0;1mp[0m|| 3
[32;1m[Board] [0m  -------------------
[32;1m[Board] [0m2 ||[0;1mp[0m|[0;1mp[0m|[0;1mp[0m|[0;1mQ[0m|[7;1m [0m|[0;1mp[0m|[7;1m [0m| || 2
[32;1m[Board] [0m  -------------------
[32;1m[Board] [0m1 ||[0;1mr[0m|[0;1mk[0m|[0;1mb[0m|[7;1m [0m|[0;1mK[0m|[7;1m [0m|[0;1mr[0m|[7;1m [0m|| 1
[32;1m[Board] [0m  -------------------
[32;1m[Board] [0m    a b c d e f g h
[32;1m[Board] [0m
[32;1m[Referee] [0mThis is the turn of the White player...
Input file: championship/lizzie-iii-git-gambit/history.csv
Output file: championship/lizzie-iii-git-gambit/move.csv
Turn of: white
Succesful move
e2e3
8 | R N B Q K B N R 
7 | P P P P P P P P 
6 | _ _ _ _ _ _ _ _ 
5 | _ _ _ _ _ _ _ _ 
4 | _ _ _ _ _ _ _ _ 
3 | _ _ _ _ P _ _ _ 
2 | P P P P _ P P P 
1 | R N B Q K B N R 
-------------------
  | A B C D E F G H 

Turn of: black
Succesful move
e7e5
8 | R N B Q K B N R 
7 | P P P P _ P P P 
6 | _ _ _ _ _ _ _ _ 
5 | _ _ _ _ P _ _ _ 
4 | _ _ _ _ _ _ _ _ 
3 | _ _ _ _ P _ _ _ 
2 | P P P P _ P P P 
1 | R N B Q K B N R 
-------------------
  | A B C D E F G H 

Turn of: white
Succesful move
h2h3
8 | R N B Q K B N R 
7 | P P P P _ P P P 
6 | _ _ _ _ _ _ _ _ 
5 | _ _ _ _ P _ _ _ 
4 | _ _ _ _ _ _ _ _ 
3 | _ _ _ _ P _ _ P 
2 | P P P P _ P P _ 
1 | R N B Q K B N R 
-------------------
  | A B C D E F G H 

Turn of: black
Succesful move
b8c6
8 | R _ B Q K B N R 
7 | P P P P _ P P P 
6 | _ _ N _ _ _ _ _ 
5 | _ _ _ _ P _ _ _ 
4 | _ _ _ _ _ _ _ _ 
3 | _ _ _ _ P _ _ P 
2 | P P P P _ P P _ 
1 | R N B Q K B N R 
-------------------
  | A B C D E F G H 

Turn of: white
Succesful move
g1f3
8 | R _ B Q K B N R 
7 | P P P P _ P P P 
6 | _ _ N _ _ _ _ _ 
5 | _ _ _ _ P _ _ _ 
4 | _ _ _ _ _ _ _ _ 
3 | _ _ _ _ P N _ P 
2 | P P P P _ P P _ 
1 | R N B Q K B _ R 
-------------------
  | A B C D E F G H 

Turn of: black
Succesful move
f8c5
8 | R _ B Q K _ N R 
7 | P P P P _ P P P 
6 | _ _ N _ _ _ _ _ 
5 | _ _ B _ P _ _ _ 
4 | _ _ _ _ _ _ _ _ 
3 | _ _ _ _ P N _ P 
2 | P P P P _ P P _ 
1 | R N B Q K B _ R 
-------------------
  | A B C D E F G H 

Turn of: white
Succesful move
g2g4
8 | R _ B Q K _ N R 
7 | P P P P _ P P P 
6 | _ _ N _ _ _ _ _ 
5 | _ _ B _ P _ _ _ 
4 | _ _ _ _ _ _ P _ 
3 | _ _ _ _ P N _ P 
2 | P P P P _ P _ _ 
1 | R N B Q K B _ R 
-------------------
  | A B C D E F G H 

Turn of: black
Succesful move
c5e3
8 | R _ B Q K _ N R 
7 | P P P P _ P P P 
6 | _ _ N _ _ _ _ _ 
5 | _ _ _ _ P _ _ _ 
4 | _ _ _ _ _ _ P _ 
3 | _ _ _ _ B N _ P 
2 | P P P P _ P _ _ 
1 | R N B Q K B _ R 
-------------------
  | A B C D E F G H 

Turn of: white
Succesful move
f1a6
8 | R _ B Q K _ N R 
7 | P P P P _ P P P 
6 | B _ N _ _ _ _ _ 
5 | _ _ _ _ P _ _ _ 
4 | _ _ _ _ _ _ P _ 
3 | _ _ _ _ B N _ P 
2 | P P P P _ P _ _ 
1 | R N B Q K _ _ R 
-------------------
  | A B C D E F G H 

Turn of: black
Succesful move
b7a6
8 | R _ B Q K _ N R 
7 | P _ P P _ P P P 
6 | P _ N _ _ _ _ _ 
5 | _ _ _ _ P _ _ _ 
4 | _ _ _ _ _ _ P _ 
3 | _ _ _ _ B N _ P 
2 | P P P P _ P _ _ 
1 | R N B Q K _ _ R 
-------------------
  | A B C D E F G H 

Turn of: white
Succesful move
h1g1
8 | R _ B Q K _ N R 
7 | P _ P P _ P P P 
6 | P _ N _ _ _ _ _ 
5 | _ _ _ _ P _ _ _ 
4 | _ _ _ _ _ _ P _ 
3 | _ _ _ _ B N _ P 
2 | P P P P _ P _ _ 
1 | R N B Q K _ R _ 
-------------------
  | A B C D E F G H 

Turn of: black
Succesful move
e3d2
8 | R _ B Q K _ N R 
7 | P _ P P _ P P P 
6 | P _ N _ _ _ _ _ 
5 | _ _ _ _ P _ _ _ 
4 | _ _ _ _ _ _ P _ 
3 | _ _ _ _ _ N _ P 
2 | P P P B _ P _ _ 
1 | R N B Q K _ R _ 
-------------------
  | A B C D E F G H 

Turn of: white
Succesful move
d1d2
8 | R _ B Q K _ N R 
7 | P _ P P _ P P P 
6 | P _ N _ _ _ _ _ 
5 | _ _ _ _ P _ _ _ 
4 | _ _ _ _ _ _ P _ 
3 | _ _ _ _ _ N _ P 
2 | P P P Q _ P _ _ 
1 | R N B _ K _ R _ 
-------------------
  | A B C D E F G H 

Turn of: black
Succesful move
d8e7
8 | R _ B _ K _ N R 
7 | P _ P P Q P P P 
6 | P _ N _ _ _ _ _ 
5 | _ _ _ _ P _ _ _ 
4 | _ _ _ _ _ _ P _ 
3 | _ _ _ _ _ N _ P 
2 | P P P Q _ P _ _ 
1 | R N B _ K _ R _ 
-------------------
  | A B C D E F G H 

We are playing as White
Move history:
e2e3
e7e5
h2h3
b8c6
g1f3
f8c5
g2g4
c5e3
f1a6
b7a6
h1g1
e3d2
d1d2
d8e7
8 | R _ B _ K _ N R 
7 | P _ P P Q P P P 
6 | P _ N _ _ _ _ _ 
5 | _ _ _ _ P _ _ _ 
4 | _ _ _ _ _ _ P _ 
3 | _ _ _ _ _ N _ P 
2 | P P P Q _ P _ _ 
1 | R N B _ K _ R _ 
-------------------
  | A B C D E F G H 

It is white's turn to play.
AI's move: a2a3
Move written: a2a3
[32;1m[Game] [0mPlayer's error code: 0
[32;1m[Game] [0mChecking move validity...
[32;1m[Board] [0mInitializing board...
[32;1m[Board] [0mLoading history file `championship/lizzie-iii-git-gambit/history.csv`...
[32;1m[Board] [0mLoaded 14 move(s).
[32;1m[Board] [0mLoading move file `championship/lizzie-iii-git-gambit/move.csv`...
[32;1m[Board] [0mWhite player is playing a2 to a3.
[32;1m[Board] [0m
[32;1m[Board] [0m    a b c d e f g h 
[32;1m[Board] [0m  -------------------
[32;1m[Board] [0m8 ||[30;1mr[0m| |[30;1mb[0m| |[30;1mK[0m| |[30;1mk[0m|[30;1mr[0m|| 8
[32;1m[Board] [0m  -------------------
[32;1m[Board] [0m7 ||[30;1mp[0m|[7;1m [0m|[30;1mp[0m|[30;1mp[0m|[30;1mQ[0m|[30;1mp[0m|[30;1mp[0m|[30;1mp[0m|| 7
[32;1m[Board] [0m  -------------------
[32;1m[Board] [0m6 ||[30;1mp[0m| |[30;1mk[0m| |[7;1m [0m| |[7;1m [0m| || 6
[32;1m[Board] [0m  -------------------
[32;1m[Board] [0m5 || |[7;1m [0m| |[7;1m [0m|[30;1mp[0m|[7;1m [0m| |[7;1m [0m|| 5
[32;1m[Board] [0m  -------------------
[32;1m[Board] [0m4 ||[7;1m [0m| |[7;1m [0m| |[7;1m [0m| |[0;1mp[0m| || 4
[32;1m[Board] [0m  -------------------
[32;1m[Board] [0m3 ||[0;1mp[0m|[7;1m [0m| |[7;1m [0m| |[0;1mk[0m| |[0;1mp[0m|| 3
[32;1m[Board] [0m  -------------------
[32;1m[Board] [0m2 ||[7;1m [0m|[0;1mp[0m|[0;1mp[0m|[0;1mQ[0m|[7;1m [0m|[0;1mp[0m|[7;1m [0m| || 2
[32;1m[Board] [0m  -------------------
[32;1m[Board] [0m1 ||[0;1mr[0m|[0;1mk[0m|[0;1mb[0m|[7;1m [0m|[0;1mK[0m|[7;1m [0m|[0;1mr[0m|[7;1m [0m|| 1
[32;1m[Board] [0m  -------------------
[32;1m[Board] [0m    a b c d e f g h
[32;1m[Board] [0m
[32;1m[Referee] [0mThis is the turn of the Black player...

    a   b   c   d   e   f   g   h 
8 | r |   | b |   | k |   | n | r  | 8
7 | p |   | p | p | q | p | p | p  | 7
6 | p |   | n |   |   |   |   |    | 6
5 |   |   |   |   | p |   |   |    | 5
4 |   |   |   |   |   |   | P |    | 4
3 | P |   |   |   |   | N |   | P  | 3
2 |   | P | P | Q |   | P |   |    | 2
1 | R | N | B |   | K |   | R |    | 1
    a   b   c   d   e   f   g   h 

next move: e7a3

[32;1m[Game] [0mPlayer's error code: 0
[32;1m[Game] [0mChecking move validity...
[32;1m[Board] [0mInitializing board...
[32;1m[Board] [0mLoading history file `championship/lizzie-iii-git-gambit/history.csv`...
[32;1m[Board] [0mLoaded 15 move(s).
[32;1m[Board] [0mLoading move file `championship/lizzie-iii-git-gambit/move.csv`...
[32;1m[Board] [0mBlack player is playing e7 to a3.
[32;1m[Board] [0m[5;1mBlack Queen is taking White Pawn.[0m
[32;1m[Board] [0m
[32;1m[Board] [0m    a b c d e f g h 
[32;1m[Board] [0m  -------------------
[32;1m[Board] [0m8 ||[30;1mr[0m| |[30;1mb[0m| |[30;1mK[0m| |[30;1mk[0m|[30;1mr[0m|| 8
[32;1m[Board] [0m  -------------------
[32;1m[Board] [0m7 ||[30;1mp[0m|[7;1m [0m|[30;1mp[0m|[30;1mp[0m| |[30;1mp[0m|[30;1mp[0m|[30;1mp[0m|| 7
[32;1m[Board] [0m  -------------------
[32;1m[Board] [0m6 ||[30;1mp[0m| |[30;1mk[0m| |[7;1m [0m| |[7;1m [0m| || 6
[32;1m[Board] [0m  -------------------
[32;1m[Board] [0m5 || |[7;1m [0m| |[7;1m [0m|[30;1mp[0m|[7;1m [0m| |[7;1m [0m|| 5
[32;1m[Board] [0m  -------------------
[32;1m[Board] [0m4 ||[7;1m [0m| |[7;1m [0m| |[7;1m [0m| |[0;1mp[0m| || 4
[32;1m[Board] [0m  -------------------
[32;1m[Board] [0m3 ||[30;1mQ[0m|[7;1m [0m| |[7;1m [0m| |[0;1mk[0m| |[0;1mp[0m|| 3
[32;1m[Board] [0m  -------------------
[32;1m[Board] [0m2 ||[7;1m [0m|[0;1mp[0m|[0;1mp[0m|[0;1mQ[0m|[7;1m [0m|[0;1mp[0m|[7;1m [0m| || 2
[32;1m[Board] [0m  -------------------
[32;1m[Board] [0m1 ||[0;1mr[0m|[0;1mk[0m|[0;1mb[0m|[7;1m [0m|[0;1mK[0m|[7;1m [0m|[0;1mr[0m|[7;1m [0m|| 1
[32;1m[Board] [0m  -------------------
[32;1m[Board] [0m    a b c d e f g h
[32;1m[Board] [0m
[32;1m[Referee] [0mThis is the turn of the White player...
Input file: championship/lizzie-iii-git-gambit/history.csv
Output file: championship/lizzie-iii-git-gambit/move.csv
Turn of: white
Succesful move
e2e3
8 | R N B Q K B N R 
7 | P P P P P P P P 
6 | _ _ _ _ _ _ _ _ 
5 | _ _ _ _ _ _ _ _ 
4 | _ _ _ _ _ _ _ _ 
3 | _ _ _ _ P _ _ _ 
2 | P P P P _ P P P 
1 | R N B Q K B N R 
-------------------
  | A B C D E F G H 

Turn of: black
Succesful move
e7e5
8 | R N B Q K B N R 
7 | P P P P _ P P P 
6 | _ _ _ _ _ _ _ _ 
5 | _ _ _ _ P _ _ _ 
4 | _ _ _ _ _ _ _ _ 
3 | _ _ _ _ P _ _ _ 
2 | P P P P _ P P P 
1 | R N B Q K B N R 
-------------------
  | A B C D E F G H 

Turn of: white
Succesful move
h2h3
8 | R N B Q K B N R 
7 | P P P P _ P P P 
6 | _ _ _ _ _ _ _ _ 
5 | _ _ _ _ P _ _ _ 
4 | _ _ _ _ _ _ _ _ 
3 | _ _ _ _ P _ _ P 
2 | P P P P _ P P _ 
1 | R N B Q K B N R 
-------------------
  | A B C D E F G H 

Turn of: black
Succesful move
b8c6
8 | R _ B Q K B N R 
7 | P P P P _ P P P 
6 | _ _ N _ _ _ _ _ 
5 | _ _ _ _ P _ _ _ 
4 | _ _ _ _ _ _ _ _ 
3 | _ _ _ _ P _ _ P 
2 | P P P P _ P P _ 
1 | R N B Q K B N R 
-------------------
  | A B C D E F G H 

Turn of: white
Succesful move
g1f3
8 | R _ B Q K B N R 
7 | P P P P _ P P P 
6 | _ _ N _ _ _ _ _ 
5 | _ _ _ _ P _ _ _ 
4 | _ _ _ _ _ _ _ _ 
3 | _ _ _ _ P N _ P 
2 | P P P P _ P P _ 
1 | R N B Q K B _ R 
-------------------
  | A B C D E F G H 

Turn of: black
Succesful move
f8c5
8 | R _ B Q K _ N R 
7 | P P P P _ P P P 
6 | _ _ N _ _ _ _ _ 
5 | _ _ B _ P _ _ _ 
4 | _ _ _ _ _ _ _ _ 
3 | _ _ _ _ P N _ P 
2 | P P P P _ P P _ 
1 | R N B Q K B _ R 
-------------------
  | A B C D E F G H 

Turn of: white
Succesful move
g2g4
8 | R _ B Q K _ N R 
7 | P P P P _ P P P 
6 | _ _ N _ _ _ _ _ 
5 | _ _ B _ P _ _ _ 
4 | _ _ _ _ _ _ P _ 
3 | _ _ _ _ P N _ P 
2 | P P P P _ P _ _ 
1 | R N B Q K B _ R 
-------------------
  | A B C D E F G H 

Turn of: black
Succesful move
c5e3
8 | R _ B Q K _ N R 
7 | P P P P _ P P P 
6 | _ _ N _ _ _ _ _ 
5 | _ _ _ _ P _ _ _ 
4 | _ _ _ _ _ _ P _ 
3 | _ _ _ _ B N _ P 
2 | P P P P _ P _ _ 
1 | R N B Q K B _ R 
-------------------
  | A B C D E F G H 

Turn of: white
Succesful move
f1a6
8 | R _ B Q K _ N R 
7 | P P P P _ P P P 
6 | B _ N _ _ _ _ _ 
5 | _ _ _ _ P _ _ _ 
4 | _ _ _ _ _ _ P _ 
3 | _ _ _ _ B N _ P 
2 | P P P P _ P _ _ 
1 | R N B Q K _ _ R 
-------------------
  | A B C D E F G H 

Turn of: black
Succesful move
b7a6
8 | R _ B Q K _ N R 
7 | P _ P P _ P P P 
6 | P _ N _ _ _ _ _ 
5 | _ _ _ _ P _ _ _ 
4 | _ _ _ _ _ _ P _ 
3 | _ _ _ _ B N _ P 
2 | P P P P _ P _ _ 
1 | R N B Q K _ _ R 
-------------------
  | A B C D E F G H 

Turn of: white
Succesful move
h1g1
8 | R _ B Q K _ N R 
7 | P _ P P _ P P P 
6 | P _ N _ _ _ _ _ 
5 | _ _ _ _ P _ _ _ 
4 | _ _ _ _ _ _ P _ 
3 | _ _ _ _ B N _ P 
2 | P P P P _ P _ _ 
1 | R N B Q K _ R _ 
-------------------
  | A B C D E F G H 

Turn of: black
Succesful move
e3d2
8 | R _ B Q K _ N R 
7 | P _ P P _ P P P 
6 | P _ N _ _ _ _ _ 
5 | _ _ _ _ P _ _ _ 
4 | _ _ _ _ _ _ P _ 
3 | _ _ _ _ _ N _ P 
2 | P P P B _ P _ _ 
1 | R N B Q K _ R _ 
-------------------
  | A B C D E F G H 

Turn of: white
Succesful move
d1d2
8 | R _ B Q K _ N R 
7 | P _ P P _ P P P 
6 | P _ N _ _ _ _ _ 
5 | _ _ _ _ P _ _ _ 
4 | _ _ _ _ _ _ P _ 
3 | _ _ _ _ _ N _ P 
2 | P P P Q _ P _ _ 
1 | R N B _ K _ R _ 
-------------------
  | A B C D E F G H 

Turn of: black
Succesful move
d8e7
8 | R _ B _ K _ N R 
7 | P _ P P Q P P P 
6 | P _ N _ _ _ _ _ 
5 | _ _ _ _ P _ _ _ 
4 | _ _ _ _ _ _ P _ 
3 | _ _ _ _ _ N _ P 
2 | P P P Q _ P _ _ 
1 | R N B _ K _ R _ 
-------------------
  | A B C D E F G H 

Turn of: white
Succesful move
a2a3
8 | R _ B _ K _ N R 
7 | P _ P P Q P P P 
6 | P _ N _ _ _ _ _ 
5 | _ _ _ _ P _ _ _ 
4 | _ _ _ _ _ _ P _ 
3 | P _ _ _ _ N _ P 
2 | _ P P Q _ P _ _ 
1 | R N B _ K _ R _ 
-------------------
  | A B C D E F G H 

Turn of: black
Succesful move
e7a3
8 | R _ B _ K _ N R 
7 | P _ P P _ P P P 
6 | P _ N _ _ _ _ _ 
5 | _ _ _ _ P _ _ _ 
4 | _ _ _ _ _ _ P _ 
3 | Q _ _ _ _ N _ P 
2 | _ P P Q _ P _ _ 
1 | R N B _ K _ R _ 
-------------------
  | A B C D E F G H 

We are playing as White
Move history:
e2e3
e7e5
h2h3
b8c6
g1f3
f8c5
g2g4
c5e3
f1a6
b7a6
h1g1
e3d2
d1d2
d8e7
a2a3
e7a3
8 | R _ B _ K _ N R 
7 | P _ P P _ P P P 
6 | P _ N _ _ _ _ _ 
5 | _ _ _ _ P _ _ _ 
4 | _ _ _ _ _ _ P _ 
3 | Q _ _ _ _ N _ P 
2 | _ P P Q _ P _ _ 
1 | R N B _ K _ R _ 
-------------------
  | A B C D E F G H 

It is white's turn to play.
AI's move: d2d6
Move written: d2d6
[32;1m[Game] [0mPlayer's error code: 0
[32;1m[Game] [0mChecking move validity...
[32;1m[Board] [0mInitializing board...
[32;1m[Board] [0mLoading history file `championship/lizzie-iii-git-gambit/history.csv`...
[32;1m[Board] [0mLoaded 16 move(s).
[32;1m[Board] [0mLoading move file `championship/lizzie-iii-git-gambit/move.csv`...
[32;1m[Board] [0mWhite player is playing d2 to d6.
[32;1m[Board] [0m
[32;1m[Board] [0m    a b c d e f g h 
[32;1m[Board] [0m  -------------------
[32;1m[Board] [0m8 ||[30;1mr[0m| |[30;1mb[0m| |[30;1mK[0m| |[30;1mk[0m|[30;1mr[0m|| 8
[32;1m[Board] [0m  -------------------
[32;1m[Board] [0m7 ||[30;1mp[0m|[7;1m [0m|[30;1mp[0m|[30;1mp[0m| |[30;1mp[0m|[30;1mp[0m|[30;1mp[0m|| 7
[32;1m[Board] [0m  -------------------
[32;1m[Board] [0m6 ||[30;1mp[0m| |[30;1mk[0m|[0;1mQ[0m|[7;1m [0m| |[7;1m [0m| || 6
[32;1m[Board] [0m  -------------------
[32;1m[Board] [0m5 || |[7;1m [0m| |[7;1m [0m|[30;1mp[0m|[7;1m [0m| |[7;1m [0m|| 5
[32;1m[Board] [0m  -------------------
[32;1m[Board] [0m4 ||[7;1m [0m| |[7;1m [0m| |[7;1m [0m| |[0;1mp[0m| || 4
[32;1m[Board] [0m  -------------------
[32;1m[Board] [0m3 ||[30;1mQ[0m|[7;1m [0m| |[7;1m [0m| |[0;1mk[0m| |[0;1mp[0m|| 3
[32;1m[Board] [0m  -------------------
[32;1m[Board] [0m2 ||[7;1m [0m|[0;1mp[0m|[0;1mp[0m| |[7;1m [0m|[0;1mp[0m|[7;1m [0m| || 2
[32;1m[Board] [0m  -------------------
[32;1m[Board] [0m1 ||[0;1mr[0m|[0;1mk[0m|[0;1mb[0m|[7;1m [0m|[0;1mK[0m|[7;1m [0m|[0;1mr[0m|[7;1m [0m|| 1
[32;1m[Board] [0m  -------------------
[32;1m[Board] [0m    a b c d e f g h
[32;1m[Board] [0m
[32;1m[Referee] [0mThis is the turn of the Black player...

    a   b   c   d   e   f   g   h 
8 | r |   | b |   | k |   | n | r  | 8
7 | p |   | p | p |   | p | p | p  | 7
6 | p |   | n | Q |   |   |   |    | 6
5 |   |   |   |   | p |   |   |    | 5
4 |   |   |   |   |   |   | P |    | 4
3 | q |   |   |   |   | N |   | P  | 3
2 |   | P | P |   |   | P |   |    | 2
1 | R | N | B |   | K |   | R |    | 1
    a   b   c   d   e   f   g   h 

next move: a3d6

[32;1m[Game] [0mPlayer's error code: 0
[32;1m[Game] [0mChecking move validity...
[32;1m[Board] [0mInitializing board...
[32;1m[Board] [0mLoading history file `championship/lizzie-iii-git-gambit/history.csv`...
[32;1m[Board] [0mLoaded 17 move(s).
[32;1m[Board] [0mLoading move file `championship/lizzie-iii-git-gambit/move.csv`...
[32;1m[Board] [0mBlack player is playing a3 to d6.
[32;1m[Board] [0m[5;1mBlack Queen is taking White Queen.[0m
[32;1m[Board] [0m
[32;1m[Board] [0m    a b c d e f g h 
[32;1m[Board] [0m  -------------------
[32;1m[Board] [0m8 ||[30;1mr[0m| |[30;1mb[0m| |[30;1mK[0m| |[30;1mk[0m|[30;1mr[0m|| 8
[32;1m[Board] [0m  -------------------
[32;1m[Board] [0m7 ||[30;1mp[0m|[7;1m [0m|[30;1mp[0m|[30;1mp[0m| |[30;1mp[0m|[30;1mp[0m|[30;1mp[0m|| 7
[32;1m[Board] [0m  -------------------
[32;1m[Board] [0m6 ||[30;1mp[0m| |[30;1mk[0m|[30;1mQ[0m|[7;1m [0m| |[7;1m [0m| || 6
[32;1m[Board] [0m  -------------------
[32;1m[Board] [0m5 || |[7;1m [0m| |[7;1m [0m|[30;1mp[0m|[7;1m [0m| |[7;1m [0m|| 5
[32;1m[Board] [0m  -------------------
[32;1m[Board] [0m4 ||[7;1m [0m| |[7;1m [0m| |[7;1m [0m| |[0;1mp[0m| || 4
[32;1m[Board] [0m  -------------------
[32;1m[Board] [0m3 || |[7;1m [0m| |[7;1m [0m| |[0;1mk[0m| |[0;1mp[0m|| 3
[32;1m[Board] [0m  -------------------
[32;1m[Board] [0m2 ||[7;1m [0m|[0;1mp[0m|[0;1mp[0m| |[7;1m [0m|[0;1mp[0m|[7;1m [0m| || 2
[32;1m[Board] [0m  -------------------
[32;1m[Board] [0m1 ||[0;1mr[0m|[0;1mk[0m|[0;1mb[0m|[7;1m [0m|[0;1mK[0m|[7;1m [0m|[0;1mr[0m|[7;1m [0m|| 1
[32;1m[Board] [0m  -------------------
[32;1m[Board] [0m    a b c d e f g h
[32;1m[Board] [0m
[32;1m[Referee] [0mThis is the turn of the White player...
Input file: championship/lizzie-iii-git-gambit/history.csv
Output file: championship/lizzie-iii-git-gambit/move.csv
Turn of: white
Succesful move
e2e3
8 | R N B Q K B N R 
7 | P P P P P P P P 
6 | _ _ _ _ _ _ _ _ 
5 | _ _ _ _ _ _ _ _ 
4 | _ _ _ _ _ _ _ _ 
3 | _ _ _ _ P _ _ _ 
2 | P P P P _ P P P 
1 | R N B Q K B N R 
-------------------
  | A B C D E F G H 

Turn of: black
Succesful move
e7e5
8 | R N B Q K B N R 
7 | P P P P _ P P P 
6 | _ _ _ _ _ _ _ _ 
5 | _ _ _ _ P _ _ _ 
4 | _ _ _ _ _ _ _ _ 
3 | _ _ _ _ P _ _ _ 
2 | P P P P _ P P P 
1 | R N B Q K B N R 
-------------------
  | A B C D E F G H 

Turn of: white
Succesful move
h2h3
8 | R N B Q K B N R 
7 | P P P P _ P P P 
6 | _ _ _ _ _ _ _ _ 
5 | _ _ _ _ P _ _ _ 
4 | _ _ _ _ _ _ _ _ 
3 | _ _ _ _ P _ _ P 
2 | P P P P _ P P _ 
1 | R N B Q K B N R 
-------------------
  | A B C D E F G H 

Turn of: black
Succesful move
b8c6
8 | R _ B Q K B N R 
7 | P P P P _ P P P 
6 | _ _ N _ _ _ _ _ 
5 | _ _ _ _ P _ _ _ 
4 | _ _ _ _ _ _ _ _ 
3 | _ _ _ _ P _ _ P 
2 | P P P P _ P P _ 
1 | R N B Q K B N R 
-------------------
  | A B C D E F G H 

Turn of: white
Succesful move
g1f3
8 | R _ B Q K B N R 
7 | P P P P _ P P P 
6 | _ _ N _ _ _ _ _ 
5 | _ _ _ _ P _ _ _ 
4 | _ _ _ _ _ _ _ _ 
3 | _ _ _ _ P N _ P 
2 | P P P P _ P P _ 
1 | R N B Q K B _ R 
-------------------
  | A B C D E F G H 

Turn of: black
Succesful move
f8c5
8 | R _ B Q K _ N R 
7 | P P P P _ P P P 
6 | _ _ N _ _ _ _ _ 
5 | _ _ B _ P _ _ _ 
4 | _ _ _ _ _ _ _ _ 
3 | _ _ _ _ P N _ P 
2 | P P P P _ P P _ 
1 | R N B Q K B _ R 
-------------------
  | A B C D E F G H 

Turn of: white
Succesful move
g2g4
8 | R _ B Q K _ N R 
7 | P P P P _ P P P 
6 | _ _ N _ _ _ _ _ 
5 | _ _ B _ P _ _ _ 
4 | _ _ _ _ _ _ P _ 
3 | _ _ _ _ P N _ P 
2 | P P P P _ P _ _ 
1 | R N B Q K B _ R 
-------------------
  | A B C D E F G H 

Turn of: black
Succesful move
c5e3
8 | R _ B Q K _ N R 
7 | P P P P _ P P P 
6 | _ _ N _ _ _ _ _ 
5 | _ _ _ _ P _ _ _ 
4 | _ _ _ _ _ _ P _ 
3 | _ _ _ _ B N _ P 
2 | P P P P _ P _ _ 
1 | R N B Q K B _ R 
-------------------
  | A B C D E F G H 

Turn of: white
Succesful move
f1a6
8 | R _ B Q K _ N R 
7 | P P P P _ P P P 
6 | B _ N _ _ _ _ _ 
5 | _ _ _ _ P _ _ _ 
4 | _ _ _ _ _ _ P _ 
3 | _ _ _ _ B N _ P 
2 | P P P P _ P _ _ 
1 | R N B Q K _ _ R 
-------------------
  | A B C D E F G H 

Turn of: black
Succesful move
b7a6
8 | R _ B Q K _ N R 
7 | P _ P P _ P P P 
6 | P _ N _ _ _ _ _ 
5 | _ _ _ _ P _ _ _ 
4 | _ _ _ _ _ _ P _ 
3 | _ _ _ _ B N _ P 
2 | P P P P _ P _ _ 
1 | R N B Q K _ _ R 
-------------------
  | A B C D E F G H 

Turn of: white
Succesful move
h1g1
8 | R _ B Q K _ N R 
7 | P _ P P _ P P P 
6 | P _ N _ _ _ _ _ 
5 | _ _ _ _ P _ _ _ 
4 | _ _ _ _ _ _ P _ 
3 | _ _ _ _ B N _ P 
2 | P P P P _ P _ _ 
1 | R N B Q K _ R _ 
-------------------
  | A B C D E F G H 

Turn of: black
Succesful move
e3d2
8 | R _ B Q K _ N R 
7 | P _ P P _ P P P 
6 | P _ N _ _ _ _ _ 
5 | _ _ _ _ P _ _ _ 
4 | _ _ _ _ _ _ P _ 
3 | _ _ _ _ _ N _ P 
2 | P P P B _ P _ _ 
1 | R N B Q K _ R _ 
-------------------
  | A B C D E F G H 

Turn of: white
Succesful move
d1d2
8 | R _ B Q K _ N R 
7 | P _ P P _ P P P 
6 | P _ N _ _ _ _ _ 
5 | _ _ _ _ P _ _ _ 
4 | _ _ _ _ _ _ P _ 
3 | _ _ _ _ _ N _ P 
2 | P P P Q _ P _ _ 
1 | R N B _ K _ R _ 
-------------------
  | A B C D E F G H 

Turn of: black
Succesful move
d8e7
8 | R _ B _ K _ N R 
7 | P _ P P Q P P P 
6 | P _ N _ _ _ _ _ 
5 | _ _ _ _ P _ _ _ 
4 | _ _ _ _ _ _ P _ 
3 | _ _ _ _ _ N _ P 
2 | P P P Q _ P _ _ 
1 | R N B _ K _ R _ 
-------------------
  | A B C D E F G H 

Turn of: white
Succesful move
a2a3
8 | R _ B _ K _ N R 
7 | P _ P P Q P P P 
6 | P _ N _ _ _ _ _ 
5 | _ _ _ _ P _ _ _ 
4 | _ _ _ _ _ _ P _ 
3 | P _ _ _ _ N _ P 
2 | _ P P Q _ P _ _ 
1 | R N B _ K _ R _ 
-------------------
  | A B C D E F G H 

Turn of: black
Succesful move
e7a3
8 | R _ B _ K _ N R 
7 | P _ P P _ P P P 
6 | P _ N _ _ _ _ _ 
5 | _ _ _ _ P _ _ _ 
4 | _ _ _ _ _ _ P _ 
3 | Q _ _ _ _ N _ P 
2 | _ P P Q _ P _ _ 
1 | R N B _ K _ R _ 
-------------------
  | A B C D E F G H 

Turn of: white
Succesful move
d2d6
8 | R _ B _ K _ N R 
7 | P _ P P _ P P P 
6 | P _ N Q _ _ _ _ 
5 | _ _ _ _ P _ _ _ 
4 | _ _ _ _ _ _ P _ 
3 | Q _ _ _ _ N _ P 
2 | _ P P _ _ P _ _ 
1 | R N B _ K _ R _ 
-------------------
  | A B C D E F G H 

Turn of: black
Succesful move
a3d6
8 | R _ B _ K _ N R 
7 | P _ P P _ P P P 
6 | P _ N Q _ _ _ _ 
5 | _ _ _ _ P _ _ _ 
4 | _ _ _ _ _ _ P _ 
3 | _ _ _ _ _ N _ P 
2 | _ P P _ _ P _ _ 
1 | R N B _ K _ R _ 
-------------------
  | A B C D E F G H 

We are playing as White
Move history:
e2e3
e7e5
h2h3
b8c6
g1f3
f8c5
g2g4
c5e3
f1a6
b7a6
h1g1
e3d2
d1d2
d8e7
a2a3
e7a3
d2d6
a3d6
8 | R _ B _ K _ N R 
7 | P _ P P _ P P P 
6 | P _ N Q _ _ _ _ 
5 | _ _ _ _ P _ _ _ 
4 | _ _ _ _ _ _ P _ 
3 | _ _ _ _ _ N _ P 
2 | _ P P _ _ P _ _ 
1 | R N B _ K _ R _ 
-------------------
  | A B C D E F G H 

It is white's turn to play.
AI's move: g1f1
Move written: g1f1
[32;1m[Game] [0mPlayer's error code: 0
[32;1m[Game] [0mChecking move validity...
[32;1m[Board] [0mInitializing board...
[32;1m[Board] [0mLoading history file `championship/lizzie-iii-git-gambit/history.csv`...
[32;1m[Board] [0mLoaded 18 move(s).
[32;1m[Board] [0mLoading move file `championship/lizzie-iii-git-gambit/move.csv`...
[32;1m[Board] [0mWhite player is playing g1 to f1.
[32;1m[Board] [0m
[32;1m[Board] [0m    a b c d e f g h 
[32;1m[Board] [0m  -------------------
[32;1m[Board] [0m8 ||[30;1mr[0m| |[30;1mb[0m| |[30;1mK[0m| |[30;1mk[0m|[30;1mr[0m|| 8
[32;1m[Board] [0m  -------------------
[32;1m[Board] [0m7 ||[30;1mp[0m|[7;1m [0m|[30;1mp[0m|[30;1mp[0m| |[30;1mp[0m|[30;1mp[0m|[30;1mp[0m|| 7
[32;1m[Board] [0m  -------------------
[32;1m[Board] [0m6 ||[30;1mp[0m| |[30;1mk[0m|[30;1mQ[0m|[7;1m [0m| |[7;1m [0m| || 6
[32;1m[Board] [0m  -------------------
[32;1m[Board] [0m5 || |[7;1m [0m| |[7;1m [0m|[30;1mp[0m|[7;1m [0m| |[7;1m [0m|| 5
[32;1m[Board] [0m  -------------------
[32;1m[Board] [0m4 ||[7;1m [0m| |[7;1m [0m| |[7;1m [0m| |[0;1mp[0m| || 4
[32;1m[Board] [0m  -------------------
[32;1m[Board] [0m3 || |[7;1m [0m| |[7;1m [0m| |[0;1mk[0m| |[0;1mp[0m|| 3
[32;1m[Board] [0m  -------------------
[32;1m[Board] [0m2 ||[7;1m [0m|[0;1mp[0m|[0;1mp[0m| |[7;1m [0m|[0;1mp[0m|[7;1m [0m| || 2
[32;1m[Board] [0m  -------------------
[32;1m[Board] [0m1 ||[0;1mr[0m|[0;1mk[0m|[0;1mb[0m|[7;1m [0m|[0;1mK[0m|[0;1mr[0m| |[7;1m [0m|| 1
[32;1m[Board] [0m  -------------------
[32;1m[Board] [0m    a b c d e f g h
[32;1m[Board] [0m
[32;1m[Referee] [0mThis is the turn of the Black player...

    a   b   c   d   e   f   g   h 
8 | r |   | b |   | k |   | n | r  | 8
7 | p |   | p | p |   | p | p | p  | 7
6 | p |   | n | q |   |   |   |    | 6
5 |   |   |   |   | p |   |   |    | 5
4 |   |   |   |   |   |   | P |    | 4
3 |   |   |   |   |   | N |   | P  | 3
2 |   | P | P |   |   | P |   |    | 2
1 | R | N | B |   | K | R |   |    | 1
    a   b   c   d   e   f   g   h 

next move: h7h5

[32;1m[Game] [0mPlayer's error code: 0
[32;1m[Game] [0mChecking move validity...
[32;1m[Board] [0mInitializing board...
[32;1m[Board] [0mLoading history file `championship/lizzie-iii-git-gambit/history.csv`...
[32;1m[Board] [0mLoaded 19 move(s).
[32;1m[Board] [0mLoading move file `championship/lizzie-iii-git-gambit/move.csv`...
[32;1m[Board] [0mBlack player is playing h7 to h5.
[32;1m[Board] [0m
[32;1m[Board] [0m    a b c d e f g h 
[32;1m[Board] [0m  -------------------
[32;1m[Board] [0m8 ||[30;1mr[0m| |[30;1mb[0m| |[30;1mK[0m| |[30;1mk[0m|[30;1mr[0m|| 8
[32;1m[Board] [0m  -------------------
[32;1m[Board] [0m7 ||[30;1mp[0m|[7;1m [0m|[30;1mp[0m|[30;1mp[0m| |[30;1mp[0m|[30;1mp[0m|[7;1m [0m|| 7
[32;1m[Board] [0m  -------------------
[32;1m[Board] [0m6 ||[30;1mp[0m| |[30;1mk[0m|[30;1mQ[0m|[7;1m [0m| |[7;1m [0m| || 6
[32;1m[Board] [0m  -------------------
[32;1m[Board] [0m5 || |[7;1m [0m| |[7;1m [0m|[30;1mp[0m|[7;1m [0m| |[30;1mp[0m|| 5
[32;1m[Board] [0m  -------------------
[32;1m[Board] [0m4 ||[7;1m [0m| |[7;1m [0m| |[7;1m [0m| |[0;1mp[0m| || 4
[32;1m[Board] [0m  -------------------
[32;1m[Board] [0m3 || |[7;1m [0m| |[7;1m [0m| |[0;1mk[0m| |[0;1mp[0m|| 3
[32;1m[Board] [0m  -------------------
[32;1m[Board] [0m2 ||[7;1m [0m|[0;1mp[0m|[0;1mp[0m| |[7;1m [0m|[0;1mp[0m|[7;1m [0m| || 2
[32;1m[Board] [0m  -------------------
[32;1m[Board] [0m1 ||[0;1mr[0m|[0;1mk[0m|[0;1mb[0m|[7;1m [0m|[0;1mK[0m|[0;1mr[0m| |[7;1m [0m|| 1
[32;1m[Board] [0m  -------------------
[32;1m[Board] [0m    a b c d e f g h
[32;1m[Board] [0m
[32;1m[Referee] [0mThis is the turn of the White player...
Input file: championship/lizzie-iii-git-gambit/history.csv
Output file: championship/lizzie-iii-git-gambit/move.csv
Turn of: white
Succesful move
e2e3
8 | R N B Q K B N R 
7 | P P P P P P P P 
6 | _ _ _ _ _ _ _ _ 
5 | _ _ _ _ _ _ _ _ 
4 | _ _ _ _ _ _ _ _ 
3 | _ _ _ _ P _ _ _ 
2 | P P P P _ P P P 
1 | R N B Q K B N R 
-------------------
  | A B C D E F G H 

Turn of: black
Succesful move
e7e5
8 | R N B Q K B N R 
7 | P P P P _ P P P 
6 | _ _ _ _ _ _ _ _ 
5 | _ _ _ _ P _ _ _ 
4 | _ _ _ _ _ _ _ _ 
3 | _ _ _ _ P _ _ _ 
2 | P P P P _ P P P 
1 | R N B Q K B N R 
-------------------
  | A B C D E F G H 

Turn of: white
Succesful move
h2h3
8 | R N B Q K B N R 
7 | P P P P _ P P P 
6 | _ _ _ _ _ _ _ _ 
5 | _ _ _ _ P _ _ _ 
4 | _ _ _ _ _ _ _ _ 
3 | _ _ _ _ P _ _ P 
2 | P P P P _ P P _ 
1 | R N B Q K B N R 
-------------------
  | A B C D E F G H 

Turn of: black
Succesful move
b8c6
8 | R _ B Q K B N R 
7 | P P P P _ P P P 
6 | _ _ N _ _ _ _ _ 
5 | _ _ _ _ P _ _ _ 
4 | _ _ _ _ _ _ _ _ 
3 | _ _ _ _ P _ _ P 
2 | P P P P _ P P _ 
1 | R N B Q K B N R 
-------------------
  | A B C D E F G H 

Turn of: white
Succesful move
g1f3
8 | R _ B Q K B N R 
7 | P P P P _ P P P 
6 | _ _ N _ _ _ _ _ 
5 | _ _ _ _ P _ _ _ 
4 | _ _ _ _ _ _ _ _ 
3 | _ _ _ _ P N _ P 
2 | P P P P _ P P _ 
1 | R N B Q K B _ R 
-------------------
  | A B C D E F G H 

Turn of: black
Succesful move
f8c5
8 | R _ B Q K _ N R 
7 | P P P P _ P P P 
6 | _ _ N _ _ _ _ _ 
5 | _ _ B _ P _ _ _ 
4 | _ _ _ _ _ _ _ _ 
3 | _ _ _ _ P N _ P 
2 | P P P P _ P P _ 
1 | R N B Q K B _ R 
-------------------
  | A B C D E F G H 

Turn of: white
Succesful move
g2g4
8 | R _ B Q K _ N R 
7 | P P P P _ P P P 
6 | _ _ N _ _ _ _ _ 
5 | _ _ B _ P _ _ _ 
4 | _ _ _ _ _ _ P _ 
3 | _ _ _ _ P N _ P 
2 | P P P P _ P _ _ 
1 | R N B Q K B _ R 
-------------------
  | A B C D E F G H 

Turn of: black
Succesful move
c5e3
8 | R _ B Q K _ N R 
7 | P P P P _ P P P 
6 | _ _ N _ _ _ _ _ 
5 | _ _ _ _ P _ _ _ 
4 | _ _ _ _ _ _ P _ 
3 | _ _ _ _ B N _ P 
2 | P P P P _ P _ _ 
1 | R N B Q K B _ R 
-------------------
  | A B C D E F G H 

Turn of: white
Succesful move
f1a6
8 | R _ B Q K _ N R 
7 | P P P P _ P P P 
6 | B _ N _ _ _ _ _ 
5 | _ _ _ _ P _ _ _ 
4 | _ _ _ _ _ _ P _ 
3 | _ _ _ _ B N _ P 
2 | P P P P _ P _ _ 
1 | R N B Q K _ _ R 
-------------------
  | A B C D E F G H 

Turn of: black
Succesful move
b7a6
8 | R _ B Q K _ N R 
7 | P _ P P _ P P P 
6 | P _ N _ _ _ _ _ 
5 | _ _ _ _ P _ _ _ 
4 | _ _ _ _ _ _ P _ 
3 | _ _ _ _ B N _ P 
2 | P P P P _ P _ _ 
1 | R N B Q K _ _ R 
-------------------
  | A B C D E F G H 

Turn of: white
Succesful move
h1g1
8 | R _ B Q K _ N R 
7 | P _ P P _ P P P 
6 | P _ N _ _ _ _ _ 
5 | _ _ _ _ P _ _ _ 
4 | _ _ _ _ _ _ P _ 
3 | _ _ _ _ B N _ P 
2 | P P P P _ P _ _ 
1 | R N B Q K _ R _ 
-------------------
  | A B C D E F G H 

Turn of: black
Succesful move
e3d2
8 | R _ B Q K _ N R 
7 | P _ P P _ P P P 
6 | P _ N _ _ _ _ _ 
5 | _ _ _ _ P _ _ _ 
4 | _ _ _ _ _ _ P _ 
3 | _ _ _ _ _ N _ P 
2 | P P P B _ P _ _ 
1 | R N B Q K _ R _ 
-------------------
  | A B C D E F G H 

Turn of: white
Succesful move
d1d2
8 | R _ B Q K _ N R 
7 | P _ P P _ P P P 
6 | P _ N _ _ _ _ _ 
5 | _ _ _ _ P _ _ _ 
4 | _ _ _ _ _ _ P _ 
3 | _ _ _ _ _ N _ P 
2 | P P P Q _ P _ _ 
1 | R N B _ K _ R _ 
-------------------
  | A B C D E F G H 

Turn of: black
Succesful move
d8e7
8 | R _ B _ K _ N R 
7 | P _ P P Q P P P 
6 | P _ N _ _ _ _ _ 
5 | _ _ _ _ P _ _ _ 
4 | _ _ _ _ _ _ P _ 
3 | _ _ _ _ _ N _ P 
2 | P P P Q _ P _ _ 
1 | R N B _ K _ R _ 
-------------------
  | A B C D E F G H 

Turn of: white
Succesful move
a2a3
8 | R _ B _ K _ N R 
7 | P _ P P Q P P P 
6 | P _ N _ _ _ _ _ 
5 | _ _ _ _ P _ _ _ 
4 | _ _ _ _ _ _ P _ 
3 | P _ _ _ _ N _ P 
2 | _ P P Q _ P _ _ 
1 | R N B _ K _ R _ 
-------------------
  | A B C D E F G H 

Turn of: black
Succesful move
e7a3
8 | R _ B _ K _ N R 
7 | P _ P P _ P P P 
6 | P _ N _ _ _ _ _ 
5 | _ _ _ _ P _ _ _ 
4 | _ _ _ _ _ _ P _ 
3 | Q _ _ _ _ N _ P 
2 | _ P P Q _ P _ _ 
1 | R N B _ K _ R _ 
-------------------
  | A B C D E F G H 

Turn of: white
Succesful move
d2d6
8 | R _ B _ K _ N R 
7 | P _ P P _ P P P 
6 | P _ N Q _ _ _ _ 
5 | _ _ _ _ P _ _ _ 
4 | _ _ _ _ _ _ P _ 
3 | Q _ _ _ _ N _ P 
2 | _ P P _ _ P _ _ 
1 | R N B _ K _ R _ 
-------------------
  | A B C D E F G H 

Turn of: black
Succesful move
a3d6
8 | R _ B _ K _ N R 
7 | P _ P P _ P P P 
6 | P _ N Q _ _ _ _ 
5 | _ _ _ _ P _ _ _ 
4 | _ _ _ _ _ _ P _ 
3 | _ _ _ _ _ N _ P 
2 | _ P P _ _ P _ _ 
1 | R N B _ K _ R _ 
-------------------
  | A B C D E F G H 

Turn of: white
Succesful move
g1f1
8 | R _ B _ K _ N R 
7 | P _ P P _ P P P 
6 | P _ N Q _ _ _ _ 
5 | _ _ _ _ P _ _ _ 
4 | _ _ _ _ _ _ P _ 
3 | _ _ _ _ _ N _ P 
2 | _ P P _ _ P _ _ 
1 | R N B _ K R _ _ 
-------------------
  | A B C D E F G H 

Turn of: black
Succesful move
h7h5
8 | R _ B _ K _ N R 
7 | P _ P P _ P P _ 
6 | P _ N Q _ _ _ _ 
5 | _ _ _ _ P _ _ P 
4 | _ _ _ _ _ _ P _ 
3 | _ _ _ _ _ N _ P 
2 | _ P P _ _ P _ _ 
1 | R N B _ K R _ _ 
-------------------
  | A B C D E F G H 

We are playing as White
Move history:
e2e3
e7e5
h2h3
b8c6
g1f3
f8c5
g2g4
c5e3
f1a6
b7a6
h1g1
e3d2
d1d2
d8e7
a2a3
e7a3
d2d6
a3d6
g1f1
h7h5
8 | R _ B _ K _ N R 
7 | P _ P P _ P P _ 
6 | P _ N Q _ _ _ _ 
5 | _ _ _ _ P _ _ P 
4 | _ _ _ _ _ _ P _ 
3 | _ _ _ _ _ N _ P 
2 | _ P P _ _ P _ _ 
1 | R N B _ K R _ _ 
-------------------
  | A B C D E F G H 

It is white's turn to play.
AI's move: g4h5
Move written: g4h5
[32;1m[Game] [0mPlayer's error code: 0
[32;1m[Game] [0mChecking move validity...
[32;1m[Board] [0mInitializing board...
[32;1m[Board] [0mLoading history file `championship/lizzie-iii-git-gambit/history.csv`...
[32;1m[Board] [0mLoaded 20 move(s).
[32;1m[Board] [0mLoading move file `championship/lizzie-iii-git-gambit/move.csv`...
[32;1m[Board] [0mWhite player is playing g4 to h5.
[32;1m[Board] [0m[5;1mWhite Pawn is taking Black Pawn.[0m
[32;1m[Board] [0m
[32;1m[Board] [0m    a b c d e f g h 
[32;1m[Board] [0m  -------------------
[32;1m[Board] [0m8 ||[30;1mr[0m| |[30;1mb[0m| |[30;1mK[0m| |[30;1mk[0m|[30;1mr[0m|| 8
[32;1m[Board] [0m  -------------------
[32;1m[Board] [0m7 ||[30;1mp[0m|[7;1m [0m|[30;1mp[0m|[30;1mp[0m| |[30;1mp[0m|[30;1mp[0m|[7;1m [0m|| 7
[32;1m[Board] [0m  -------------------
[32;1m[Board] [0m6 ||[30;1mp[0m| |[30;1mk[0m|[30;1mQ[0m|[7;1m [0m| |[7;1m [0m| || 6
[32;1m[Board] [0m  -------------------
[32;1m[Board] [0m5 || |[7;1m [0m| |[7;1m [0m|[30;1mp[0m|[7;1m [0m| |[0;1mp[0m|| 5
[32;1m[Board] [0m  -------------------
[32;1m[Board] [0m4 ||[7;1m [0m| |[7;1m [0m| |[7;1m [0m| |[7;1m [0m| || 4
[32;1m[Board] [0m  -------------------
[32;1m[Board] [0m3 || |[7;1m [0m| |[7;1m [0m| |[0;1mk[0m| |[0;1mp[0m|| 3
[32;1m[Board] [0m  -------------------
[32;1m[Board] [0m2 ||[7;1m [0m|[0;1mp[0m|[0;1mp[0m| |[7;1m [0m|[0;1mp[0m|[7;1m [0m| || 2
[32;1m[Board] [0m  -------------------
[32;1m[Board] [0m1 ||[0;1mr[0m|[0;1mk[0m|[0;1mb[0m|[7;1m [0m|[0;1mK[0m|[0;1mr[0m| |[7;1m [0m|| 1
[32;1m[Board] [0m  -------------------
[32;1m[Board] [0m    a b c d e f g h
[32;1m[Board] [0m
[32;1m[Referee] [0mThis is the turn of the Black player...

    a   b   c   d   e   f   g   h 
8 | r |   | b |   | k |   | n | r  | 8
7 | p |   | p | p |   | p | p |    | 7
6 | p |   | n | q |   |   |   |    | 6
5 |   |   |   |   | p |   |   | P  | 5
4 |   |   |   |   |   |   |   |    | 4
3 |   |   |   |   |   | N |   | P  | 3
2 |   | P | P |   |   | P |   |    | 2
1 | R | N | B |   | K | R |   |    | 1
    a   b   c   d   e   f   g   h 

next move: h8h5

[32;1m[Game] [0mPlayer's error code: 0
[32;1m[Game] [0mChecking move validity...
[32;1m[Board] [0mInitializing board...
[32;1m[Board] [0mLoading history file `championship/lizzie-iii-git-gambit/history.csv`...
[32;1m[Board] [0mLoaded 21 move(s).
[32;1m[Board] [0mLoading move file `championship/lizzie-iii-git-gambit/move.csv`...
[32;1m[Board] [0mBlack player is playing h8 to h5.
[32;1m[Board] [0m[5;1mBlack Rook is taking White Pawn.[0m
[32;1m[Board] [0m
[32;1m[Board] [0m    a b c d e f g h 
[32;1m[Board] [0m  -------------------
[32;1m[Board] [0m8 ||[30;1mr[0m| |[30;1mb[0m| |[30;1mK[0m| |[30;1mk[0m| || 8
[32;1m[Board] [0m  -------------------
[32;1m[Board] [0m7 ||[30;1mp[0m|[7;1m [0m|[30;1mp[0m|[30;1mp[0m| |[30;1mp[0m|[30;1mp[0m|[7;1m [0m|| 7
[32;1m[Board] [0m  -------------------
[32;1m[Board] [0m6 ||[30;1mp[0m| |[30;1mk[0m|[30;1mQ[0m|[7;1m [0m| |[7;1m [0m| || 6
[32;1m[Board] [0m  -------------------
[32;1m[Board] [0m5 || |[7;1m [0m| |[7;1m [0m|[30;1mp[0m|[7;1m [0m| |[30;1mr[0m|| 5
[32;1m[Board] [0m  -------------------
[32;1m[Board] [0m4 ||[7;1m [0m| |[7;1m [0m| |[7;1m [0m| |[7;1m [0m| || 4
[32;1m[Board] [0m  -------------------
[32;1m[Board] [0m3 || |[7;1m [0m| |[7;1m [0m| |[0;1mk[0m| |[0;1mp[0m|| 3
[32;1m[Board] [0m  -------------------
[32;1m[Board] [0m2 ||[7;1m [0m|[0;1mp[0m|[0;1mp[0m| |[7;1m [0m|[0;1mp[0m|[7;1m [0m| || 2
[32;1m[Board] [0m  -------------------
[32;1m[Board] [0m1 ||[0;1mr[0m|[0;1mk[0m|[0;1mb[0m|[7;1m [0m|[0;1mK[0m|[0;1mr[0m| |[7;1m [0m|| 1
[32;1m[Board] [0m  -------------------
[32;1m[Board] [0m    a b c d e f g h
[32;1m[Board] [0m
[32;1m[Referee] [0mThis is the turn of the White player...
Input file: championship/lizzie-iii-git-gambit/history.csv
Output file: championship/lizzie-iii-git-gambit/move.csv
Turn of: white
Succesful move
e2e3
8 | R N B Q K B N R 
7 | P P P P P P P P 
6 | _ _ _ _ _ _ _ _ 
5 | _ _ _ _ _ _ _ _ 
4 | _ _ _ _ _ _ _ _ 
3 | _ _ _ _ P _ _ _ 
2 | P P P P _ P P P 
1 | R N B Q K B N R 
-------------------
  | A B C D E F G H 

Turn of: black
Succesful move
e7e5
8 | R N B Q K B N R 
7 | P P P P _ P P P 
6 | _ _ _ _ _ _ _ _ 
5 | _ _ _ _ P _ _ _ 
4 | _ _ _ _ _ _ _ _ 
3 | _ _ _ _ P _ _ _ 
2 | P P P P _ P P P 
1 | R N B Q K B N R 
-------------------
  | A B C D E F G H 

Turn of: white
Succesful move
h2h3
8 | R N B Q K B N R 
7 | P P P P _ P P P 
6 | _ _ _ _ _ _ _ _ 
5 | _ _ _ _ P _ _ _ 
4 | _ _ _ _ _ _ _ _ 
3 | _ _ _ _ P _ _ P 
2 | P P P P _ P P _ 
1 | R N B Q K B N R 
-------------------
  | A B C D E F G H 

Turn of: black
Succesful move
b8c6
8 | R _ B Q K B N R 
7 | P P P P _ P P P 
6 | _ _ N _ _ _ _ _ 
5 | _ _ _ _ P _ _ _ 
4 | _ _ _ _ _ _ _ _ 
3 | _ _ _ _ P _ _ P 
2 | P P P P _ P P _ 
1 | R N B Q K B N R 
-------------------
  | A B C D E F G H 

Turn of: white
Succesful move
g1f3
8 | R _ B Q K B N R 
7 | P P P P _ P P P 
6 | _ _ N _ _ _ _ _ 
5 | _ _ _ _ P _ _ _ 
4 | _ _ _ _ _ _ _ _ 
3 | _ _ _ _ P N _ P 
2 | P P P P _ P P _ 
1 | R N B Q K B _ R 
-------------------
  | A B C D E F G H 

Turn of: black
Succesful move
f8c5
8 | R _ B Q K _ N R 
7 | P P P P _ P P P 
6 | _ _ N _ _ _ _ _ 
5 | _ _ B _ P _ _ _ 
4 | _ _ _ _ _ _ _ _ 
3 | _ _ _ _ P N _ P 
2 | P P P P _ P P _ 
1 | R N B Q K B _ R 
-------------------
  | A B C D E F G H 

Turn of: white
Succesful move
g2g4
8 | R _ B Q K _ N R 
7 | P P P P _ P P P 
6 | _ _ N _ _ _ _ _ 
5 | _ _ B _ P _ _ _ 
4 | _ _ _ _ _ _ P _ 
3 | _ _ _ _ P N _ P 
2 | P P P P _ P _ _ 
1 | R N B Q K B _ R 
-------------------
  | A B C D E F G H 

Turn of: black
Succesful move
c5e3
8 | R _ B Q K _ N R 
7 | P P P P _ P P P 
6 | _ _ N _ _ _ _ _ 
5 | _ _ _ _ P _ _ _ 
4 | _ _ _ _ _ _ P _ 
3 | _ _ _ _ B N _ P 
2 | P P P P _ P _ _ 
1 | R N B Q K B _ R 
-------------------
  | A B C D E F G H 

Turn of: white
Succesful move
f1a6
8 | R _ B Q K _ N R 
7 | P P P P _ P P P 
6 | B _ N _ _ _ _ _ 
5 | _ _ _ _ P _ _ _ 
4 | _ _ _ _ _ _ P _ 
3 | _ _ _ _ B N _ P 
2 | P P P P _ P _ _ 
1 | R N B Q K _ _ R 
-------------------
  | A B C D E F G H 

Turn of: black
Succesful move
b7a6
8 | R _ B Q K _ N R 
7 | P _ P P _ P P P 
6 | P _ N _ _ _ _ _ 
5 | _ _ _ _ P _ _ _ 
4 | _ _ _ _ _ _ P _ 
3 | _ _ _ _ B N _ P 
2 | P P P P _ P _ _ 
1 | R N B Q K _ _ R 
-------------------
  | A B C D E F G H 

Turn of: white
Succesful move
h1g1
8 | R _ B Q K _ N R 
7 | P _ P P _ P P P 
[...]
7 | P P P P _ P P P 
6 | _ _ N _ _ _ _ _ 
5 | _ _ _ _ P _ _ _ 
4 | _ _ _ _ _ _ _ _ 
3 | _ _ _ _ P N _ P 
2 | P P P P _ P P _ 
1 | R N B Q K B _ R 
-------------------
  | A B C D E F G H 

Turn of: black
Succesful move
f8c5
8 | R _ B Q K _ N R 
7 | P P P P _ P P P 
6 | _ _ N _ _ _ _ _ 
5 | _ _ B _ P _ _ _ 
4 | _ _ _ _ _ _ _ _ 
3 | _ _ _ _ P N _ P 
2 | P P P P _ P P _ 
1 | R N B Q K B _ R 
-------------------
  | A B C D E F G H 

Turn of: white
Succesful move
g2g4
8 | R _ B Q K _ N R 
7 | P P P P _ P P P 
6 | _ _ N _ _ _ _ _ 
5 | _ _ B _ P _ _ _ 
4 | _ _ _ _ _ _ P _ 
3 | _ _ _ _ P N _ P 
2 | P P P P _ P _ _ 
1 | R N B Q K B _ R 
-------------------
  | A B C D E F G H 

Turn of: black
Succesful move
c5e3
8 | R _ B Q K _ N R 
7 | P P P P _ P P P 
6 | _ _ N _ _ _ _ _ 
5 | _ _ _ _ P _ _ _ 
4 | _ _ _ _ _ _ P _ 
3 | _ _ _ _ B N _ P 
2 | P P P P _ P _ _ 
1 | R N B Q K B _ R 
-------------------
  | A B C D E F G H 

Turn of: white
Succesful move
f1a6
8 | R _ B Q K _ N R 
7 | P P P P _ P P P 
6 | B _ N _ _ _ _ _ 
5 | _ _ _ _ P _ _ _ 
4 | _ _ _ _ _ _ P _ 
3 | _ _ _ _ B N _ P 
2 | P P P P _ P _ _ 
1 | R N B Q K _ _ R 
-------------------
  | A B C D E F G H 

Turn of: black
Succesful move
b7a6
8 | R _ B Q K _ N R 
7 | P _ P P _ P P P 
6 | P _ N _ _ _ _ _ 
5 | _ _ _ _ P _ _ _ 
4 | _ _ _ _ _ _ P _ 
3 | _ _ _ _ B N _ P 
2 | P P P P _ P _ _ 
1 | R N B Q K _ _ R 
-------------------
  | A B C D E F G H 

Turn of: white
Succesful move
h1g1
8 | R _ B Q K _ N R 
7 | P _ P P _ P P P 
6 | P _ N _ _ _ _ _ 
5 | _ _ _ _ P _ _ _ 
4 | _ _ _ _ _ _ P _ 
3 | _ _ _ _ B N _ P 
2 | P P P P _ P _ _ 
1 | R N B Q K _ R _ 
-------------------
  | A B C D E F G H 

Turn of: black
Succesful move
e3d2
8 | R _ B Q K _ N R 
7 | P _ P P _ P P P 
6 | P _ N _ _ _ _ _ 
5 | _ _ _ _ P _ _ _ 
4 | _ _ _ _ _ _ P _ 
3 | _ _ _ _ _ N _ P 
2 | P P P B _ P _ _ 
1 | R N B Q K _ R _ 
-------------------
  | A B C D E F G H 

Turn of: white
Succesful move
d1d2
8 | R _ B Q K _ N R 
7 | P _ P P _ P P P 
6 | P _ N _ _ _ _ _ 
5 | _ _ _ _ P _ _ _ 
4 | _ _ _ _ _ _ P _ 
3 | _ _ _ _ _ N _ P 
2 | P P P Q _ P _ _ 
1 | R N B _ K _ R _ 
-------------------
  | A B C D E F G H 

Turn of: black
Succesful move
d8e7
8 | R _ B _ K _ N R 
7 | P _ P P Q P P P 
6 | P _ N _ _ _ _ _ 
5 | _ _ _ _ P _ _ _ 
4 | _ _ _ _ _ _ P _ 
3 | _ _ _ _ _ N _ P 
2 | P P P Q _ P _ _ 
1 | R N B _ K _ R _ 
-------------------
  | A B C D E F G H 

Turn of: white
Succesful move
a2a3
8 | R _ B _ K _ N R 
7 | P _ P P Q P P P 
6 | P _ N _ _ _ _ _ 
5 | _ _ _ _ P _ _ _ 
4 | _ _ _ _ _ _ P _ 
3 | P _ _ _ _ N _ P 
2 | _ P P Q _ P _ _ 
1 | R N B _ K _ R _ 
-------------------
  | A B C D E F G H 

Turn of: black
Succesful move
e7a3
8 | R _ B _ K _ N R 
7 | P _ P P _ P P P 
6 | P _ N _ _ _ _ _ 
5 | _ _ _ _ P _ _ _ 
4 | _ _ _ _ _ _ P _ 
3 | Q _ _ _ _ N _ P 
2 | _ P P Q _ P _ _ 
1 | R N B _ K _ R _ 
-------------------
  | A B C D E F G H 

Turn of: white
Succesful move
d2d6
8 | R _ B _ K _ N R 
7 | P _ P P _ P P P 
6 | P _ N Q _ _ _ _ 
5 | _ _ _ _ P _ _ _ 
4 | _ _ _ _ _ _ P _ 
3 | Q _ _ _ _ N _ P 
2 | _ P P _ _ P _ _ 
1 | R N B _ K _ R _ 
-------------------
  | A B C D E F G H 

Turn of: black
Succesful move
a3d6
8 | R _ B _ K _ N R 
7 | P _ P P _ P P P 
6 | P _ N Q _ _ _ _ 
5 | _ _ _ _ P _ _ _ 
4 | _ _ _ _ _ _ P _ 
3 | _ _ _ _ _ N _ P 
2 | _ P P _ _ P _ _ 
1 | R N B _ K _ R _ 
-------------------
  | A B C D E F G H 

Turn of: white
Succesful move
g1f1
8 | R _ B _ K _ N R 
7 | P _ P P _ P P P 
6 | P _ N Q _ _ _ _ 
5 | _ _ _ _ P _ _ _ 
4 | _ _ _ _ _ _ P _ 
3 | _ _ _ _ _ N _ P 
2 | _ P P _ _ P _ _ 
1 | R N B _ K R _ _ 
-------------------
  | A B C D E F G H 

Turn of: black
Succesful move
h7h5
8 | R _ B _ K _ N R 
7 | P _ P P _ P P _ 
6 | P _ N Q _ _ _ _ 
5 | _ _ _ _ P _ _ P 
4 | _ _ _ _ _ _ P _ 
3 | _ _ _ _ _ N _ P 
2 | _ P P _ _ P _ _ 
1 | R N B _ K R _ _ 
-------------------
  | A B C D E F G H 

Turn of: white
Succesful move
g4h5
8 | R _ B _ K _ N R 
7 | P _ P P _ P P _ 
6 | P _ N Q _ _ _ _ 
5 | _ _ _ _ P _ _ P 
4 | _ _ _ _ _ _ _ _ 
3 | _ _ _ _ _ N _ P 
2 | _ P P _ _ P _ _ 
1 | R N B _ K R _ _ 
-------------------
  | A B C D E F G H 

Turn of: black
Succesful move
h8h5
8 | R _ B _ K _ N _ 
7 | P _ P P _ P P _ 
6 | P _ N Q _ _ _ _ 
5 | _ _ _ _ P _ _ R 
4 | _ _ _ _ _ _ _ _ 
3 | _ _ _ _ _ N _ P 
2 | _ P P _ _ P _ _ 
1 | R N B _ K R _ _ 
-------------------
  | A B C D E F G H 

Turn of: white
Succesful move
a1a2
8 | R _ B _ K _ N _ 
7 | P _ P P _ P P _ 
6 | P _ N Q _ _ _ _ 
5 | _ _ _ _ P _ _ R 
4 | _ _ _ _ _ _ _ _ 
3 | _ _ _ _ _ N _ P 
2 | R P P _ _ P _ _ 
1 | _ N B _ K R _ _ 
-------------------
  | A B C D E F G H 

Turn of: black
Succesful move
h5h3
8 | R _ B _ K _ N _ 
7 | P _ P P _ P P _ 
6 | P _ N Q _ _ _ _ 
5 | _ _ _ _ P _ _ _ 
4 | _ _ _ _ _ _ _ _ 
3 | _ _ _ _ _ N _ R 
2 | R P P _ _ P _ _ 
1 | _ N B _ K R _ _ 
-------------------
  | A B C D E F G H 

Turn of: white
Succesful move
f3e5
8 | R _ B _ K _ N _ 
7 | P _ P P _ P P _ 
6 | P _ N Q _ _ _ _ 
5 | _ _ _ _ N _ _ _ 
4 | _ _ _ _ _ _ _ _ 
3 | _ _ _ _ _ _ _ R 
2 | R P P _ _ P _ _ 
1 | _ N B _ K R _ _ 
-------------------
  | A B C D E F G H 

Turn of: black
Succesful move
d6e5
8 | R _ B _ K _ N _ 
7 | P _ P P _ P P _ 
6 | P _ N _ _ _ _ _ 
5 | _ _ _ _ Q _ _ _ 
4 | _ _ _ _ _ _ _ _ 
3 | _ _ _ _ _ _ _ R 
2 | R P P _ _ P _ _ 
1 | _ N B _ K R _ _ 
-------------------
  | A B C D E F G H 

We are playing as White
Move history:
e2e3
e7e5
h2h3
b8c6
g1f3
f8c5
g2g4
c5e3
f1a6
b7a6
h1g1
e3d2
d1d2
d8e7
a2a3
e7a3
d2d6
a3d6
g1f1
h7h5
g4h5
h8h5
a1a2
h5h3
f3e5
d6e5
8 | R _ B _ K _ N _ 
7 | P _ P P _ P P _ 
6 | P _ N _ _ _ _ _ 
5 | _ _ _ _ Q _ _ _ 
4 | _ _ _ _ _ _ _ _ 
3 | _ _ _ _ _ _ _ R 
2 | R P P _ _ P _ _ 
1 | _ N B _ K R _ _ 
-------------------
  | A B C D E F G H 

It is white's turn to play.
AI's move: e1d2
Move written: e1d2
[32;1m[Game] [0mPlayer's error code: 0
[32;1m[Game] [0mChecking move validity...
[32;1m[Board] [0mInitializing board...
[32;1m[Board] [0mLoading history file `championship/lizzie-iii-git-gambit/history.csv`...
[32;1m[Board] [0mLoaded 26 move(s).
[32;1m[Board] [0mLoading move file `championship/lizzie-iii-git-gambit/move.csv`...
[32;1m[Board] [0mWhite player is playing e1 to d2.
[32;1m[Board] [0m
[32;1m[Board] [0m    a b c d e f g h 
[32;1m[Board] [0m  -------------------
[32;1m[Board] [0m8 ||[30;1mr[0m| |[30;1mb[0m| |[30;1mK[0m| |[30;1mk[0m| || 8
[32;1m[Board] [0m  -------------------
[32;1m[Board] [0m7 ||[30;1mp[0m|[7;1m [0m|[30;1mp[0m|[30;1mp[0m| |[30;1mp[0m|[30;1mp[0m|[7;1m [0m|| 7
[32;1m[Board] [0m  -------------------
[32;1m[Board] [0m6 ||[30;1mp[0m| |[30;1mk[0m| |[7;1m [0m| |[7;1m [0m| || 6
[32;1m[Board] [0m  -------------------
[32;1m[Board] [0m5 || |[7;1m [0m| |[7;1m [0m|[30;1mQ[0m|[7;1m [0m| |[7;1m [0m|| 5
[32;1m[Board] [0m  -------------------
[32;1m[Board] [0m4 ||[7;1m [0m| |[7;1m [0m| |[7;1m [0m| |[7;1m [0m| || 4
[32;1m[Board] [0m  -------------------
[32;1m[Board] [0m3 || |[7;1m [0m| |[7;1m [0m| |[7;1m [0m| |[30;1mr[0m|| 3
[32;1m[Board] [0m  -------------------
[32;1m[Board] [0m2 ||[0;1mr[0m|[0;1mp[0m|[0;1mp[0m|[0;1mK[0m|[7;1m [0m|[0;1mp[0m|[7;1m [0m| || 2
[32;1m[Board] [0m  -------------------
[32;1m[Board] [0m1 || |[0;1mk[0m|[0;1mb[0m|[7;1m [0m| |[0;1mr[0m| |[7;1m [0m|| 1
[32;1m[Board] [0m  -------------------
[32;1m[Board] [0m    a b c d e f g h
[32;1m[Board] [0m
[32;1m[Referee] [0mThis is the turn of the Black player...

    a   b   c   d   e   f   g   h 
8 | r |   | b |   | k |   | n |    | 8
7 | p |   | p | p |   | p | p |    | 7
6 | p |   | n |   |   |   |   |    | 6
5 |   |   |   |   | q |   |   |    | 5
4 |   |   |   |   |   |   |   |    | 4
3 |   |   |   |   |   |   |   | r  | 3
2 | R | P | P | K |   | P |   |    | 2
1 |   | N | B |   |   | R |   |    | 1
    a   b   c   d   e   f   g   h 

next move: e5b2

[32;1m[Game] [0mPlayer's error code: 0
[32;1m[Game] [0mChecking move validity...
[32;1m[Board] [0mInitializing board...
[32;1m[Board] [0mLoading history file `championship/lizzie-iii-git-gambit/history.csv`...
[32;1m[Board] [0mLoaded 27 move(s).
[32;1m[Board] [0mLoading move file `championship/lizzie-iii-git-gambit/move.csv`...
[32;1m[Board] [0mBlack player is playing e5 to b2.
[32;1m[Board] [0m[5;1mBlack Queen is taking White Pawn.[0m
[32;1m[Board] [0m
[32;1m[Board] [0m    a b c d e f g h 
[32;1m[Board] [0m  -------------------
[32;1m[Board] [0m8 ||[30;1mr[0m| |[30;1mb[0m| |[30;1mK[0m| |[30;1mk[0m| || 8
[32;1m[Board] [0m  -------------------
[32;1m[Board] [0m7 ||[30;1mp[0m|[7;1m [0m|[30;1mp[0m|[30;1mp[0m| |[30;1mp[0m|[30;1mp[0m|[7;1m [0m|| 7
[32;1m[Board] [0m  -------------------
[32;1m[Board] [0m6 ||[30;1mp[0m| |[30;1mk[0m| |[7;1m [0m| |[7;1m [0m| || 6
[32;1m[Board] [0m  -------------------
[32;1m[Board] [0m5 || |[7;1m [0m| |[7;1m [0m| |[7;1m [0m| |[7;1m [0m|| 5
[32;1m[Board] [0m  -------------------
[32;1m[Board] [0m4 ||[7;1m [0m| |[7;1m [0m| |[7;1m [0m| |[7;1m [0m| || 4
[32;1m[Board] [0m  -------------------
[32;1m[Board] [0m3 || |[7;1m [0m| |[7;1m [0m| |[7;1m [0m| |[30;1mr[0m|| 3
[32;1m[Board] [0m  -------------------
[32;1m[Board] [0m2 ||[0;1mr[0m|[30;1mQ[0m|[0;1mp[0m|[0;1mK[0m|[7;1m [0m|[0;1mp[0m|[7;1m [0m| || 2
[32;1m[Board] [0m  -------------------
[32;1m[Board] [0m1 || |[0;1mk[0m|[0;1mb[0m|[7;1m [0m| |[0;1mr[0m| |[7;1m [0m|| 1
[32;1m[Board] [0m  -------------------
[32;1m[Board] [0m    a b c d e f g h
[32;1m[Board] [0m
[32;1m[Referee] [0mThis is the turn of the White player...
Input file: championship/lizzie-iii-git-gambit/history.csv
Output file: championship/lizzie-iii-git-gambit/move.csv
Turn of: white
Succesful move
e2e3
8 | R N B Q K B N R 
7 | P P P P P P P P 
6 | _ _ _ _ _ _ _ _ 
5 | _ _ _ _ _ _ _ _ 
4 | _ _ _ _ _ _ _ _ 
3 | _ _ _ _ P _ _ _ 
2 | P P P P _ P P P 
1 | R N B Q K B N R 
-------------------
  | A B C D E F G H 

Turn of: black
Succesful move
e7e5
8 | R N B Q K B N R 
7 | P P P P _ P P P 
6 | _ _ _ _ _ _ _ _ 
5 | _ _ _ _ P _ _ _ 
4 | _ _ _ _ _ _ _ _ 
3 | _ _ _ _ P _ _ _ 
2 | P P P P _ P P P 
1 | R N B Q K B N R 
-------------------
  | A B C D E F G H 

Turn of: white
Succesful move
h2h3
8 | R N B Q K B N R 
7 | P P P P _ P P P 
6 | _ _ _ _ _ _ _ _ 
5 | _ _ _ _ P _ _ _ 
4 | _ _ _ _ _ _ _ _ 
3 | _ _ _ _ P _ _ P 
2 | P P P P _ P P _ 
1 | R N B Q K B N R 
-------------------
  | A B C D E F G H 

Turn of: black
Succesful move
b8c6
8 | R _ B Q K B N R 
7 | P P P P _ P P P 
6 | _ _ N _ _ _ _ _ 
5 | _ _ _ _ P _ _ _ 
4 | _ _ _ _ _ _ _ _ 
3 | _ _ _ _ P _ _ P 
2 | P P P P _ P P _ 
1 | R N B Q K B N R 
-------------------
  | A B C D E F G H 

Turn of: white
Succesful move
g1f3
8 | R _ B Q K B N R 
7 | P P P P _ P P P 
6 | _ _ N _ _ _ _ _ 
5 | _ _ _ _ P _ _ _ 
4 | _ _ _ _ _ _ _ _ 
3 | _ _ _ _ P N _ P 
2 | P P P P _ P P _ 
1 | R N B Q K B _ R 
-------------------
  | A B C D E F G H 

Turn of: black
Succesful move
f8c5
8 | R _ B Q K _ N R 
7 | P P P P _ P P P 
6 | _ _ N _ _ _ _ _ 
5 | _ _ B _ P _ _ _ 
4 | _ _ _ _ _ _ _ _ 
3 | _ _ _ _ P N _ P 
2 | P P P P _ P P _ 
1 | R N B Q K B _ R 
-------------------
  | A B C D E F G H 

Turn of: white
Succesful move
g2g4
8 | R _ B Q K _ N R 
7 | P P P P _ P P P 
6 | _ _ N _ _ _ _ _ 
5 | _ _ B _ P _ _ _ 
4 | _ _ _ _ _ _ P _ 
3 | _ _ _ _ P N _ P 
2 | P P P P _ P _ _ 
1 | R N B Q K B _ R 
-------------------
  | A B C D E F G H 

Turn of: black
Succesful move
c5e3
8 | R _ B Q K _ N R 
7 | P P P P _ P P P 
6 | _ _ N _ _ _ _ _ 
5 | _ _ _ _ P _ _ _ 
4 | _ _ _ _ _ _ P _ 
3 | _ _ _ _ B N _ P 
2 | P P P P _ P _ _ 
1 | R N B Q K B _ R 
-------------------
  | A B C D E F G H 

Turn of: white
Succesful move
f1a6
8 | R _ B Q K _ N R 
7 | P P P P _ P P P 
6 | B _ N _ _ _ _ _ 
5 | _ _ _ _ P _ _ _ 
4 | _ _ _ _ _ _ P _ 
3 | _ _ _ _ B N _ P 
2 | P P P P _ P _ _ 
1 | R N B Q K _ _ R 
-------------------
  | A B C D E F G H 

Turn of: black
Succesful move
b7a6
8 | R _ B Q K _ N R 
7 | P _ P P _ P P P 
6 | P _ N _ _ _ _ _ 
5 | _ _ _ _ P _ _ _ 
4 | _ _ _ _ _ _ P _ 
3 | _ _ _ _ B N _ P 
2 | P P P P _ P _ _ 
1 | R N B Q K _ _ R 
-------------------
  | A B C D E F G H 

Turn of: white
Succesful move
h1g1
8 | R _ B Q K _ N R 
7 | P _ P P _ P P P 
6 | P _ N _ _ _ _ _ 
5 | _ _ _ _ P _ _ _ 
4 | _ _ _ _ _ _ P _ 
3 | _ _ _ _ B N _ P 
2 | P P P P _ P _ _ 
1 | R N B Q K _ R _ 
-------------------
  | A B C D E F G H 

Turn of: black
Succesful move
e3d2
8 | R _ B Q K _ N R 
7 | P _ P P _ P P P 
6 | P _ N _ _ _ _ _ 
5 | _ _ _ _ P _ _ _ 
4 | _ _ _ _ _ _ P _ 
3 | _ _ _ _ _ N _ P 
2 | P P P B _ P _ _ 
1 | R N B Q K _ R _ 
-------------------
  | A B C D E F G H 

Turn of: white
Succesful move
d1d2
8 | R _ B Q K _ N R 
7 | P _ P P _ P P P 
6 | P _ N _ _ _ _ _ 
5 | _ _ _ _ P _ _ _ 
4 | _ _ _ _ _ _ P _ 
3 | _ _ _ _ _ N _ P 
2 | P P P Q _ P _ _ 
1 | R N B _ K _ R _ 
-------------------
  | A B C D E F G H 

Turn of: black
Succesful move
d8e7
8 | R _ B _ K _ N R 
7 | P _ P P Q P P P 
6 | P _ N _ _ _ _ _ 
5 | _ _ _ _ P _ _ _ 
4 | _ _ _ _ _ _ P _ 
3 | _ _ _ _ _ N _ P 
2 | P P P Q _ P _ _ 
1 | R N B _ K _ R _ 
-------------------
  | A B C D E F G H 

Turn of: white
Succesful move
a2a3
8 | R _ B _ K _ N R 
7 | P _ P P Q P P P 
6 | P _ N _ _ _ _ _ 
5 | _ _ _ _ P _ _ _ 
4 | _ _ _ _ _ _ P _ 
3 | P _ _ _ _ N _ P 
2 | _ P P Q _ P _ _ 
1 | R N B _ K _ R _ 
-------------------
  | A B C D E F G H 

Turn of: black
Succesful move
e7a3
8 | R _ B _ K _ N R 
7 | P _ P P _ P P P 
6 | P _ N _ _ _ _ _ 
5 | _ _ _ _ P _ _ _ 
4 | _ _ _ _ _ _ P _ 
3 | Q _ _ _ _ N _ P 
2 | _ P P Q _ P _ _ 
1 | R N B _ K _ R _ 
-------------------
  | A B C D E F G H 

Turn of: white
Succesful move
d2d6
8 | R _ B _ K _ N R 
7 | P _ P P _ P P P 
6 | P _ N Q _ _ _ _ 
5 | _ _ _ _ P _ _ _ 
4 | _ _ _ _ _ _ P _ 
3 | Q _ _ _ _ N _ P 
2 | _ P P _ _ P _ _ 
1 | R N B _ K _ R _ 
-------------------
  | A B C D E F G H 

Turn of: black
Succesful move
a3d6
8 | R _ B _ K _ N R 
7 | P _ P P _ P P P 
6 | P _ N Q _ _ _ _ 
5 | _ _ _ _ P _ _ _ 
4 | _ _ _ _ _ _ P _ 
3 | _ _ _ _ _ N _ P 
2 | _ P P _ _ P _ _ 
1 | R N B _ K _ R _ 
-------------------
  | A B C D E F G H 

Turn of: white
Succesful move
g1f1
8 | R _ B _ K _ N R 
7 | P _ P P _ P P P 
6 | P _ N Q _ _ _ _ 
5 | _ _ _ _ P _ _ _ 
4 | _ _ _ _ _ _ P _ 
3 | _ _ _ _ _ N _ P 
2 | _ P P _ _ P _ _ 
1 | R N B _ K R _ _ 
-------------------
  | A B C D E F G H 

Turn of: black
Succesful move
h7h5
8 | R _ B _ K _ N R 
7 | P _ P P _ P P _ 
6 | P _ N Q _ _ _ _ 
5 | _ _ _ _ P _ _ P 
4 | _ _ _ _ _ _ P _ 
3 | _ _ _ _ _ N _ P 
2 | _ P P _ _ P _ _ 
1 | R N B _ K R _ _ 
-------------------
  | A B C D E F G H 

Turn of: white
Succesful move
g4h5
8 | R _ B _ K _ N R 
7 | P _ P P _ P P _ 
6 | P _ N Q _ _ _ _ 
5 | _ _ _ _ P _ _ P 
4 | _ _ _ _ _ _ _ _ 
3 | _ _ _ _ _ N _ P 
2 | _ P P _ _ P _ _ 
1 | R N B _ K R _ _ 
-------------------
  | A B C D E F G H 

Turn of: black
Succesful move
h8h5
8 | R _ B _ K _ N _ 
7 | P _ P P _ P P _ 
6 | P _ N Q _ _ _ _ 
5 | _ _ _ _ P _ _ R 
4 | _ _ _ _ _ _ _ _ 
3 | _ _ _ _ _ N _ P 
2 | _ P P _ _ P _ _ 
1 | R N B _ K R _ _ 
-------------------
  | A B C D E F G H 

Turn of: white
Succesful move
a1a2
8 | R _ B _ K _ N _ 
7 | P _ P P _ P P _ 
6 | P _ N Q _ _ _ _ 
5 | _ _ _ _ P _ _ R 
4 | _ _ _ _ _ _ _ _ 
3 | _ _ _ _ _ N _ P 
2 | R P P _ _ P _ _ 
1 | _ N B _ K R _ _ 
-------------------
  | A B C D E F G H 

Turn of: black
Succesful move
h5h3
8 | R _ B _ K _ N _ 
7 | P _ P P _ P P _ 
6 | P _ N Q _ _ _ _ 
5 | _ _ _ _ P _ _ _ 
4 | _ _ _ _ _ _ _ _ 
3 | _ _ _ _ _ N _ R 
2 | R P P _ _ P _ _ 
1 | _ N B _ K R _ _ 
-------------------
  | A B C D E F G H 

Turn of: white
Succesful move
f3e5
8 | R _ B _ K _ N _ 
7 | P _ P P _ P P _ 
6 | P _ N Q _ _ _ _ 
5 | _ _ _ _ N _ _ _ 
4 | _ _ _ _ _ _ _ _ 
3 | _ _ _ _ _ _ _ R 
2 | R P P _ _ P _ _ 
1 | _ N B _ K R _ _ 
-------------------
  | A B C D E F G H 

Turn of: black
Succesful move
d6e5
8 | R _ B _ K _ N _ 
7 | P _ P P _ P P _ 
6 | P _ N _ _ _ _ _ 
5 | _ _ _ _ Q _ _ _ 
4 | _ _ _ _ _ _ _ _ 
3 | _ _ _ _ _ _ _ R 
2 | R P P _ _ P _ _ 
1 | _ N B _ K R _ _ 
-------------------
  | A B C D E F G H 

Turn of: white
Succesful move
e1d2
8 | R _ B _ K _ N _ 
7 | P _ P P _ P P _ 
6 | P _ N _ _ _ _ _ 
5 | _ _ _ _ Q _ _ _ 
4 | _ _ _ _ _ _ _ _ 
3 | _ _ _ _ _ _ _ R 
2 | R P P K _ P _ _ 
1 | _ N B _ _ R _ _ 
-------------------
  | A B C D E F G H 

Turn of: black
Succesful move
e5b2
8 | R _ B _ K _ N _ 
7 | P _ P P _ P P _ 
6 | P _ N _ _ _ _ _ 
5 | _ _ _ _ _ _ _ _ 
4 | _ _ _ _ _ _ _ _ 
3 | _ _ _ _ _ _ _ R 
2 | R Q P K _ P _ _ 
1 | _ N B _ _ R _ _ 
-------------------
  | A B C D E F G H 

We are playing as White
Move history:
e2e3
e7e5
h2h3
b8c6
g1f3
f8c5
g2g4
c5e3
f1a6
b7a6
h1g1
e3d2
d1d2
d8e7
a2a3
e7a3
d2d6
a3d6
g1f1
h7h5
g4h5
h8h5
a1a2
h5h3
f3e5
d6e5
e1d2
e5b2
8 | R _ B _ K _ N _ 
7 | P _ P P _ P P _ 
6 | P _ N _ _ _ _ _ 
5 | _ _ _ _ _ _ _ _ 
4 | _ _ _ _ _ _ _ _ 
3 | _ _ _ _ _ _ _ R 
2 | R Q P K _ P _ _ 
1 | _ N B _ _ R _ _ 
-------------------
  | A B C D E F G H 

It is white's turn to play.
AI's move: f1e1
Move written: f1e1
[32;1m[Game] [0mPlayer's error code: 0
[32;1m[Game] [0mChecking move validity...
[32;1m[Board] [0mInitializing board...
[32;1m[Board] [0mLoading history file `championship/lizzie-iii-git-gambit/history.csv`...
[32;1m[Board] [0mLoaded 28 move(s).
[32;1m[Board] [0mLoading move file `championship/lizzie-iii-git-gambit/move.csv`...
[32;1m[Board] [0mWhite player is playing f1 to e1.
[32;1m[Board] [0m
[32;1m[Board] [0m    a b c d e f g h 
[32;1m[Board] [0m  -------------------
[32;1m[Board] [0m8 ||[30;1mr[0m| |[30;1mb[0m| |[30;1mK[0m| |[30;1mk[0m| || 8
[32;1m[Board] [0m  -------------------
[32;1m[Board] [0m7 ||[30;1mp[0m|[7;1m [0m|[30;1mp[0m|[30;1mp[0m| |[30;1mp[0m|[30;1mp[0m|[7;1m [0m|| 7
[32;1m[Board] [0m  -------------------
[32;1m[Board] [0m6 ||[30;1mp[0m| |[30;1mk[0m| |[7;1m [0m| |[7;1m [0m| || 6
[32;1m[Board] [0m  -------------------
[32;1m[Board] [0m5 || |[7;1m [0m| |[7;1m [0m| |[7;1m [0m| |[7;1m [0m|| 5
[32;1m[Board] [0m  -------------------
[32;1m[Board] [0m4 ||[7;1m [0m| |[7;1m [0m| |[7;1m [0m| |[7;1m [0m| || 4
[32;1m[Board] [0m  -------------------
[32;1m[Board] [0m3 || |[7;1m [0m| |[7;1m [0m| |[7;1m [0m| |[30;1mr[0m|| 3
[32;1m[Board] [0m  -------------------
[32;1m[Board] [0m2 ||[0;1mr[0m|[30;1mQ[0m|[0;1mp[0m|[0;1mK[0m|[7;1m [0m|[0;1mp[0m|[7;1m [0m| || 2
[32;1m[Board] [0m  -------------------
[32;1m[Board] [0m1 || |[0;1mk[0m|[0;1mb[0m|[7;1m [0m|[0;1mr[0m|[7;1m [0m| |[7;1m [0m|| 1
[32;1m[Board] [0m  -------------------
[32;1m[Board] [0m    a b c d e f g h
[32;1m[Board] [0m
[32;1m[Referee] [0mThis is the turn of the Black player...
[32;1m[Board] [0m[33;1m[WARNING][0m [5;1mBlack King in check![0m
[32;1m[Board] [0m[33;1m[WARNING][0m    Threatened by White Rook (e1)

    a   b   c   d   e   f   g   h 
8 | r |   | b |   | k |   | n |    | 8
7 | p |   | p | p |   | p | p |    | 7
6 | p |   | n |   |   |   |   |    | 6
5 |   |   |   |   |   |   |   |    | 5
4 |   |   |   |   |   |   |   |    | 4
3 |   |   |   |   |   |   |   | r  | 3
2 | R | q | P | K |   | P |   |    | 2
1 |   | N | B |   | R |   |   |    | 1
    a   b   c   d   e   f   g   h 

next move: b2a2

[32;1m[Game] [0mPlayer's error code: 0
[32;1m[Game] [0mChecking move validity...
[32;1m[Board] [0mInitializing board...
[32;1m[Board] [0mLoading history file `championship/lizzie-iii-git-gambit/history.csv`...
[32;1m[Board] [0mLoaded 29 move(s).
[32;1m[Board] [0mLoading move file `championship/lizzie-iii-git-gambit/move.csv`...
[32;1m[Board] [0mBlack player is playing b2 to a2.
[32;1m[Board] [0m[31;1m[ERROR][0m Proposed move from (b2) to (a2) puts the King in check :(
[32;1m[Board] [0m[31;1m[ERROR][0m Black Queen (b2) cannot reach its destination (a2) :(
[32;1m[Referee] [0mInvalid move (code: -7) :(
[32;1m[Game] [0mBlack player has lost on illegal move.
