[32;1m[Board] [0mInitializing board...
[32;1m[Board] [0m
[32;1m[Board] [0m    a b c d e f g h 
[32;1m[Board] [0m  -------------------
[32;1m[Board] [0m8 ||[30;1mr[0m|[30;1mk[0m|[30;1mb[0m|[30;1mQ[0m|[30;1mK[0m|[30;1mb[0m|[30;1mk[0m|[30;1mr[0m|| 8
[32;1m[Board] [0m  -------------------
[32;1m[Board] [0m7 ||[30;1mp[0m|[30;1mp[0m|[30;1mp[0m|[30;1mp[0m|[30;1mp[0m|[30;1mp[0m|[30;1mp[0m|[30;1mp[0m|| 7
[32;1m[Board] [0m  -------------------
[32;1m[Board] [0m6 ||[7;1m [0m| |[7;1m [0m| |[7;1m [0m| |[7;1m [0m| || 6
[32;1m[Board] [0m  -------------------
[32;1m[Board] [0m5 || |[7;1m [0m| |[7;1m [0m| |[7;1m [0m| |[7;1m [0m|| 5
[32;1m[Board] [0m  -------------------
[32;1m[Board] [0m4 ||[7;1m [0m| |[7;1m [0m| |[7;1m [0m| |[7;1m [0m| || 4
[32;1m[Board] [0m  -------------------
[32;1m[Board] [0m3 || |[7;1m [0m| |[7;1m [0m| |[7;1m [0m| |[7;1m [0m|| 3
[32;1m[Board] [0m  -------------------
[32;1m[Board] [0m2 ||[0;1mp[0m|[0;1mp[0m|[0;1mp[0m|[0;1mp[0m|[0;1mp[0m|[0;1mp[0m|[0;1mp[0m|[0;1mp[0m|| 2
[32;1m[Board] [0m  -------------------
[32;1m[Board] [0m1 ||[0;1mr[0m|[0;1mk[0m|[0;1mb[0m|[0;1mQ[0m|[0;1mK[0m|[0;1mb[0m|[0;1mk[0m|[0;1mr[0m|| 1
[32;1m[Board] [0m  -------------------
[32;1m[Board] [0m    a b c d e f g h
[32;1m[Board] [0m
[32;1m[Referee] [0mThis is the turn of the White player...
Input file: championship/lizzie-iii-check-innit-mate/history.csv
Output file: championship/lizzie-iii-check-innit-mate/move.csv
We are playing as White
Move history:
8 | R N B Q K B N R 
7 | P P P P P P P P 
6 | _ _ _ _ _ _ _ _ 
5 | _ _ _ _ _ _ _ _ 
4 | _ _ _ _ _ _ _ _ 
3 | _ _ _ _ _ _ _ _ 
2 | P P P P P P P P 
1 | R N B Q K B N R 
-------------------
  | A B C D E F G H 

It is white's turn to play.
AI's move: b2b4
Move written: b2b4
[32;1m[Game] [0mPlayer's error code: 0
[32;1m[Game] [0mChecking move validity...
[32;1m[Board] [0mInitializing board...
[32;1m[Board] [0mLoading history file `championship/lizzie-iii-check-innit-mate/history.csv`...
[32;1m[Board] [0mLoaded 0 move(s).
[32;1m[Board] [0mLoading move file `championship/lizzie-iii-check-innit-mate/move.csv`...
[32;1m[Board] [0mWhite player is playing b2 to b4.
[32;1m[Board] [0m
[32;1m[Board] [0m    a b c d e f g h 
[32;1m[Board] [0m  -------------------
[32;1m[Board] [0m8 ||[30;1mr[0m|[30;1mk[0m|[30;1mb[0m|[30;1mQ[0m|[30;1mK[0m|[30;1mb[0m|[30;1mk[0m|[30;1mr[0m|| 8
[32;1m[Board] [0m  -------------------
[32;1m[Board] [0m7 ||[30;1mp[0m|[30;1mp[0m|[30;1mp[0m|[30;1mp[0m|[30;1mp[0m|[30;1mp[0m|[30;1mp[0m|[30;1mp[0m|| 7
[32;1m[Board] [0m  -------------------
[32;1m[Board] [0m6 ||[7;1m [0m| |[7;1m [0m| |[7;1m [0m| |[7;1m [0m| || 6
[32;1m[Board] [0m  -------------------
[32;1m[Board] [0m5 || |[7;1m [0m| |[7;1m [0m| |[7;1m [0m| |[7;1m [0m|| 5
[32;1m[Board] [0m  -------------------
[32;1m[Board] [0m4 ||[7;1m [0m|[0;1mp[0m|[7;1m [0m| |[7;1m [0m| |[7;1m [0m| || 4
[32;1m[Board] [0m  -------------------
[32;1m[Board] [0m3 || |[7;1m [0m| |[7;1m [0m| |[7;1m [0m| |[7;1m [0m|| 3
[32;1m[Board] [0m  -------------------
[32;1m[Board] [0m2 ||[0;1mp[0m| |[0;1mp[0m|[0;1mp[0m|[0;1mp[0m|[0;1mp[0m|[0;1mp[0m|[0;1mp[0m|| 2
[32;1m[Board] [0m  -------------------
[32;1m[Board] [0m1 ||[0;1mr[0m|[0;1mk[0m|[0;1mb[0m|[0;1mQ[0m|[0;1mK[0m|[0;1mb[0m|[0;1mk[0m|[0;1mr[0m|| 1
[32;1m[Board] [0m  -------------------
[32;1m[Board] [0m    a b c d e f g h
[32;1m[Board] [0m
[32;1m[Referee] [0mThis is the turn of the Black player...
0 0 0 0 0 0 0 0 
0 0 0 0 0 0 0 0 
- - - - - - - - 
- - - - - - - - 
- 1 - - - - - - 
- - - - - - - - 
1 - 1 1 1 1 1 1 
1 1 1 1 1 1 1 1 
--------
looking for king 0, 0Rook
0
looking for king 0, 1Knight
0
looking for king 0, 2Bishop
0
looking for king 0, 3Queen
0
looking for king 0, 4King
1
looking for king 0, 5Bishop
0
looking for king 0, 6Knight
0
looking for king 0, 7Rook
0
looking for king 1, 0Pawn
0
looking for king 1, 2Pawn
0
looking for king 1, 3Pawn
0
looking for king 1, 4Pawn
0
looking for king 1, 5Pawn
0
looking for king 1, 6Pawn
0
looking for king 1, 7Pawn
0
looking for king 3, 1Pawn
0
looking for king 6, 0Pawn
0
looking for king 6, 1Pawn
0
looking for king 6, 2Pawn
0
looking for king 6, 3Pawn
0
looking for king 6, 4Pawn
0
looking for king 6, 5Pawn
0
looking for king 6, 6Pawn
0
looking for king 6, 7Pawn
0
looking for king 7, 0Rook
0
looking for king 7, 1Knight
0
looking for king 7, 2Bishop
0
looking for king 7, 3Queen
0
looking for king 7, 4King
1
From (6, 0) to (5, 0)
From (6, 0) to (4, 0)
From (6, 1) to (5, 1)
From (6, 1) to (4, 1)
From (6, 2) to (5, 2)
From (6, 2) to (4, 2)
From (6, 3) to (5, 3)
From (6, 3) to (4, 3)
From (6, 4) to (5, 4)
From (6, 4) to (4, 4)
From (6, 5) to (5, 5)
From (6, 5) to (4, 5)
From (6, 6) to (5, 6)
From (6, 6) to (4, 6)
From (6, 7) to (5, 7)
From (6, 7) to (4, 7)
From (7, 1) to (5, 2)
From (7, 1) to (5, 0)
From (7, 6) to (5, 7)
From (7, 6) to (5, 5)
[32;1m[Game] [0mPlayer's error code: 0
[32;1m[Game] [0mChecking move validity...
[32;1m[Board] [0mInitializing board...
[32;1m[Board] [0mLoading history file `championship/lizzie-iii-check-innit-mate/history.csv`...
[32;1m[Board] [0mLoaded 1 move(s).
[32;1m[Board] [0mLoading move file `championship/lizzie-iii-check-innit-mate/move.csv`...
[32;1m[Board] [0mBlack player is playing h7 to h5.
[32;1m[Board] [0m
[32;1m[Board] [0m    a b c d e f g h 
[32;1m[Board] [0m  -------------------
[32;1m[Board] [0m8 ||[30;1mr[0m|[30;1mk[0m|[30;1mb[0m|[30;1mQ[0m|[30;1mK[0m|[30;1mb[0m|[30;1mk[0m|[30;1mr[0m|| 8
[32;1m[Board] [0m  -------------------
[32;1m[Board] [0m7 ||[30;1mp[0m|[30;1mp[0m|[30;1mp[0m|[30;1mp[0m|[30;1mp[0m|[30;1mp[0m|[30;1mp[0m|[7;1m [0m|| 7
[32;1m[Board] [0m  -------------------
[32;1m[Board] [0m6 ||[7;1m [0m| |[7;1m [0m| |[7;1m [0m| |[7;1m [0m| || 6
[32;1m[Board] [0m  -------------------
[32;1m[Board] [0m5 || |[7;1m [0m| |[7;1m [0m| |[7;1m [0m| |[30;1mp[0m|| 5
[32;1m[Board] [0m  -------------------
[32;1m[Board] [0m4 ||[7;1m [0m|[0;1mp[0m|[7;1m [0m| |[7;1m [0m| |[7;1m [0m| || 4
[32;1m[Board] [0m  -------------------
[32;1m[Board] [0m3 || |[7;1m [0m| |[7;1m [0m| |[7;1m [0m| |[7;1m [0m|| 3
[32;1m[Board] [0m  -------------------
[32;1m[Board] [0m2 ||[0;1mp[0m| |[0;1mp[0m|[0;1mp[0m|[0;1mp[0m|[0;1mp[0m|[0;1mp[0m|[0;1mp[0m|| 2
[32;1m[Board] [0m  -------------------
[32;1m[Board] [0m1 ||[0;1mr[0m|[0;1mk[0m|[0;1mb[0m|[0;1mQ[0m|[0;1mK[0m|[0;1mb[0m|[0;1mk[0m|[0;1mr[0m|| 1
[32;1m[Board] [0m  -------------------
[32;1m[Board] [0m    a b c d e f g h
[32;1m[Board] [0m
[32;1m[Referee] [0mThis is the turn of the White player...
Input file: championship/lizzie-iii-check-innit-mate/history.csv
Output file: championship/lizzie-iii-check-innit-mate/move.csv
Turn of: white
Succesful move
b2b4
8 | R N B Q K B N R 
7 | P P P P P P P P 
6 | _ _ _ _ _ _ _ _ 
5 | _ _ _ _ _ _ _ _ 
4 | _ P _ _ _ _ _ _ 
3 | _ _ _ _ _ _ _ _ 
2 | P _ P P P P P P 
1 | R N B Q K B N R 
-------------------
  | A B C D E F G H 

Turn of: black
Succesful move
h7h5
8 | R N B Q K B N R 
7 | P P P P P P P _ 
6 | _ _ _ _ _ _ _ _ 
5 | _ _ _ _ _ _ _ P 
4 | _ P _ _ _ _ _ _ 
3 | _ _ _ _ _ _ _ _ 
2 | P _ P P P P P P 
1 | R N B Q K B N R 
-------------------
  | A B C D E F G H 

We are playing as White
Move history:
b2b4
h7h5
8 | R N B Q K B N R 
7 | P P P P P P P _ 
6 | _ _ _ _ _ _ _ _ 
5 | _ _ _ _ _ _ _ P 
4 | _ P _ _ _ _ _ _ 
3 | _ _ _ _ _ _ _ _ 
2 | P _ P P P P P P 
1 | R N B Q K B N R 
-------------------
  | A B C D E F G H 

It is white's turn to play.
AI's move: f2f4
Move written: f2f4
[32;1m[Game] [0mPlayer's error code: 0
[32;1m[Game] [0mChecking move validity...
[32;1m[Board] [0mInitializing board...
[32;1m[Board] [0mLoading history file `championship/lizzie-iii-check-innit-mate/history.csv`...
[32;1m[Board] [0mLoaded 2 move(s).
[32;1m[Board] [0mLoading move file `championship/lizzie-iii-check-innit-mate/move.csv`...
[32;1m[Board] [0mWhite player is playing f2 to f4.
[32;1m[Board] [0m
[32;1m[Board] [0m    a b c d e f g h 
[32;1m[Board] [0m  -------------------
[32;1m[Board] [0m8 ||[30;1mr[0m|[30;1mk[0m|[30;1mb[0m|[30;1mQ[0m|[30;1mK[0m|[30;1mb[0m|[30;1mk[0m|[30;1mr[0m|| 8
[32;1m[Board] [0m  -------------------
[32;1m[Board] [0m7 ||[30;1mp[0m|[30;1mp[0m|[30;1mp[0m|[30;1mp[0m|[30;1mp[0m|[30;1mp[0m|[30;1mp[0m|[7;1m [0m|| 7
[32;1m[Board] [0m  -------------------
[32;1m[Board] [0m6 ||[7;1m [0m| |[7;1m [0m| |[7;1m [0m| |[7;1m [0m| || 6
[32;1m[Board] [0m  -------------------
[32;1m[Board] [0m5 || |[7;1m [0m| |[7;1m [0m| |[7;1m [0m| |[30;1mp[0m|| 5
[32;1m[Board] [0m  -------------------
[32;1m[Board] [0m4 ||[7;1m [0m|[0;1mp[0m|[7;1m [0m| |[7;1m [0m|[0;1mp[0m|[7;1m [0m| || 4
[32;1m[Board] [0m  -------------------
[32;1m[Board] [0m3 || |[7;1m [0m| |[7;1m [0m| |[7;1m [0m| |[7;1m [0m|| 3
[32;1m[Board] [0m  -------------------
[32;1m[Board] [0m2 ||[0;1mp[0m| |[0;1mp[0m|[0;1mp[0m|[0;1mp[0m| |[0;1mp[0m|[0;1mp[0m|| 2
[32;1m[Board] [0m  -------------------
[32;1m[Board] [0m1 ||[0;1mr[0m|[0;1mk[0m|[0;1mb[0m|[0;1mQ[0m|[0;1mK[0m|[0;1mb[0m|[0;1mk[0m|[0;1mr[0m|| 1
[32;1m[Board] [0m  -------------------
[32;1m[Board] [0m    a b c d e f g h
[32;1m[Board] [0m
[32;1m[Referee] [0mThis is the turn of the Black player...
0 0 0 0 0 0 0 0 
0 0 0 0 0 0 0 - 
- - - - - - - - 
- - - - - - - 0 
- 1 - - - 1 - - 
- - - - - - - - 
1 - 1 1 1 - 1 1 
1 1 1 1 1 1 1 1 
--------
looking for king 0, 0Rook
0
looking for king 0, 1Knight
0
looking for king 0, 2Bishop
0
looking for king 0, 3Queen
0
looking for king 0, 4King
1
looking for king 0, 5Bishop
0
looking for king 0, 6Knight
0
looking for king 0, 7Rook
0
looking for king 1, 0Pawn
0
looking for king 1, 2Pawn
0
looking for king 1, 3Pawn
0
looking for king 1, 4Pawn
0
looking for king 1, 6Pawn
0
looking for king 1, 7Pawn
0
looking for king 3, 1Pawn
0
looking for king 3, 5Pawn
0
looking for king 4, 7Pawn
0
looking for king 6, 0Pawn
0
looking for king 6, 1Pawn
0
looking for king 6, 2Pawn
0
looking for king 6, 3Pawn
0
looking for king 6, 4Pawn
0
looking for king 6, 5Pawn
0
looking for king 6, 6Pawn
0
looking for king 7, 0Rook
0
looking for king 7, 1Knight
0
looking for king 7, 2Bishop
0
looking for king 7, 3Queen
0
looking for king 7, 4King
1
From (4, 7) to (3, 7)
From (6, 0) to (5, 0)
From (6, 0) to (4, 0)
From (6, 1) to (5, 1)
From (6, 1) to (4, 1)
From (6, 2) to (5, 2)
From (6, 2) to (4, 2)
From (6, 3) to (5, 3)
From (6, 3) to (4, 3)
From (6, 4) to (5, 4)
From (6, 4) to (4, 4)
From (6, 5) to (5, 5)
From (6, 5) to (4, 5)
From (6, 6) to (5, 6)
From (6, 6) to (4, 6)
From (7, 1) to (5, 2)
From (7, 1) to (5, 0)
From (7, 6) to (5, 7)
From (7, 6) to (5, 5)
From (7, 7) to (6, 7)
From (7, 7) to (5, 7)
[32;1m[Game] [0mPlayer's error code: 0
[32;1m[Game] [0mChecking move validity...
[32;1m[Board] [0mInitializing board...
[32;1m[Board] [0mLoading history file `championship/lizzie-iii-check-innit-mate/history.csv`...
[32;1m[Board] [0mLoaded 3 move(s).
[32;1m[Board] [0mLoading move file `championship/lizzie-iii-check-innit-mate/move.csv`...
[32;1m[Board] [0mBlack player is playing e7 to e6.
[32;1m[Board] [0m
[32;1m[Board] [0m    a b c d e f g h 
[32;1m[Board] [0m  -------------------
[32;1m[Board] [0m8 ||[30;1mr[0m|[30;1mk[0m|[30;1mb[0m|[30;1mQ[0m|[30;1mK[0m|[30;1mb[0m|[30;1mk[0m|[30;1mr[0m|| 8
[32;1m[Board] [0m  -------------------
[32;1m[Board] [0m7 ||[30;1mp[0m|[30;1mp[0m|[30;1mp[0m|[30;1mp[0m| |[30;1mp[0m|[30;1mp[0m|[7;1m [0m|| 7
[32;1m[Board] [0m  -------------------
[32;1m[Board] [0m6 ||[7;1m [0m| |[7;1m [0m| |[30;1mp[0m| |[7;1m [0m| || 6
[32;1m[Board] [0m  -------------------
[32;1m[Board] [0m5 || |[7;1m [0m| |[7;1m [0m| |[7;1m [0m| |[30;1mp[0m|| 5
[32;1m[Board] [0m  -------------------
[32;1m[Board] [0m4 ||[7;1m [0m|[0;1mp[0m|[7;1m [0m| |[7;1m [0m|[0;1mp[0m|[7;1m [0m| || 4
[32;1m[Board] [0m  -------------------
[32;1m[Board] [0m3 || |[7;1m [0m| |[7;1m [0m| |[7;1m [0m| |[7;1m [0m|| 3
[32;1m[Board] [0m  -------------------
[32;1m[Board] [0m2 ||[0;1mp[0m| |[0;1mp[0m|[0;1mp[0m|[0;1mp[0m| |[0;1mp[0m|[0;1mp[0m|| 2
[32;1m[Board] [0m  -------------------
[32;1m[Board] [0m1 ||[0;1mr[0m|[0;1mk[0m|[0;1mb[0m|[0;1mQ[0m|[0;1mK[0m|[0;1mb[0m|[0;1mk[0m|[0;1mr[0m|| 1
[32;1m[Board] [0m  -------------------
[32;1m[Board] [0m    a b c d e f g h
[32;1m[Board] [0m
[32;1m[Referee] [0mThis is the turn of the White player...
Input file: championship/lizzie-iii-check-innit-mate/history.csv
Output file: championship/lizzie-iii-check-innit-mate/move.csv
Turn of: white
Succesful move
b2b4
8 | R N B Q K B N R 
7 | P P P P P P P P 
6 | _ _ _ _ _ _ _ _ 
5 | _ _ _ _ _ _ _ _ 
4 | _ P _ _ _ _ _ _ 
3 | _ _ _ _ _ _ _ _ 
2 | P _ P P P P P P 
1 | R N B Q K B N R 
-------------------
  | A B C D E F G H 

Turn of: black
Succesful move
h7h5
8 | R N B Q K B N R 
7 | P P P P P P P _ 
6 | _ _ _ _ _ _ _ _ 
5 | _ _ _ _ _ _ _ P 
4 | _ P _ _ _ _ _ _ 
3 | _ _ _ _ _ _ _ _ 
2 | P _ P P P P P P 
1 | R N B Q K B N R 
-------------------
  | A B C D E F G H 

Turn of: white
Succesful move
f2f4
8 | R N B Q K B N R 
7 | P P P P P P P _ 
6 | _ _ _ _ _ _ _ _ 
5 | _ _ _ _ _ _ _ P 
4 | _ P _ _ _ P _ _ 
3 | _ _ _ _ _ _ _ _ 
2 | P _ P P P _ P P 
1 | R N B Q K B N R 
-------------------
  | A B C D E F G H 

Turn of: black
Succesful move
e7e6
8 | R N B Q K B N R 
7 | P P P P _ P P _ 
6 | _ _ _ _ P _ _ _ 
5 | _ _ _ _ _ _ _ P 
4 | _ P _ _ _ P _ _ 
3 | _ _ _ _ _ _ _ _ 
2 | P _ P P P _ P P 
1 | R N B Q K B N R 
-------------------
  | A B C D E F G H 

We are playing as White
Move history:
b2b4
h7h5
f2f4
e7e6
8 | R N B Q K B N R 
7 | P P P P _ P P _ 
6 | _ _ _ _ P _ _ _ 
5 | _ _ _ _ _ _ _ P 
4 | _ P _ _ _ P _ _ 
3 | _ _ _ _ _ _ _ _ 
2 | P _ P P P _ P P 
1 | R N B Q K B N R 
-------------------
  | A B C D E F G H 

It is white's turn to play.
AI's move: e1f2
Move written: e1f2
[32;1m[Game] [0mPlayer's error code: 0
[32;1m[Game] [0mChecking move validity...
[32;1m[Board] [0mInitializing board...
[32;1m[Board] [0mLoading history file `championship/lizzie-iii-check-innit-mate/history.csv`...
[32;1m[Board] [0mLoaded 4 move(s).
[32;1m[Board] [0mLoading move file `championship/lizzie-iii-check-innit-mate/move.csv`...
[32;1m[Board] [0mWhite player is playing e1 to f2.
[32;1m[Board] [0m
[32;1m[Board] [0m    a b c d e f g h 
[32;1m[Board] [0m  -------------------
[32;1m[Board] [0m8 ||[30;1mr[0m|[30;1mk[0m|[30;1mb[0m|[30;1mQ[0m|[30;1mK[0m|[30;1mb[0m|[30;1mk[0m|[30;1mr[0m|| 8
[32;1m[Board] [0m  -------------------
[32;1m[Board] [0m7 ||[30;1mp[0m|[30;1mp[0m|[30;1mp[0m|[30;1mp[0m| |[30;1mp[0m|[30;1mp[0m|[7;1m [0m|| 7
[32;1m[Board] [0m  -------------------
[32;1m[Board] [0m6 ||[7;1m [0m| |[7;1m [0m| |[30;1mp[0m| |[7;1m [0m| || 6
[32;1m[Board] [0m  -------------------
[32;1m[Board] [0m5 || |[7;1m [0m| |[7;1m [0m| |[7;1m [0m| |[30;1mp[0m|| 5
[32;1m[Board] [0m  -------------------
[32;1m[Board] [0m4 ||[7;1m [0m|[0;1mp[0m|[7;1m [0m| |[7;1m [0m|[0;1mp[0m|[7;1m [0m| || 4
[32;1m[Board] [0m  -------------------
[32;1m[Board] [0m3 || |[7;1m [0m| |[7;1m [0m| |[7;1m [0m| |[7;1m [0m|| 3
[32;1m[Board] [0m  -------------------
[32;1m[Board] [0m2 ||[0;1mp[0m| |[0;1mp[0m|[0;1mp[0m|[0;1mp[0m|[0;1mK[0m|[0;1mp[0m|[0;1mp[0m|| 2
[32;1m[Board] [0m  -------------------
[32;1m[Board] [0m1 ||[0;1mr[0m|[0;1mk[0m|[0;1mb[0m|[0;1mQ[0m| |[0;1mb[0m|[0;1mk[0m|[0;1mr[0m|| 1
[32;1m[Board] [0m  -------------------
[32;1m[Board] [0m    a b c d e f g h
[32;1m[Board] [0m
[32;1m[Referee] [0mThis is the turn of the Black player...
0 0 0 0 0 0 0 0 
0 0 0 0 - 0 0 - 
- - - - 0 - - - 
- - - - - - - 0 
- 1 - - - 1 - - 
- - - - - - - - 
1 - 1 1 1 1 1 1 
1 1 1 1 - 1 1 1 
--------
looking for king 0, 0Rook
0
looking for king 0, 1Knight
0
looking for king 0, 2Bishop
0
looking for king 0, 3Queen
0
looking for king 0, 5Bishop
0
looking for king 0, 6Knight
0
looking for king 0, 7Rook
0
looking for king 1, 0Pawn
0
looking for king 1, 2Pawn
0
looking for king 1, 3Pawn
0
looking for king 1, 4Pawn
0
looking for king 1, 5King
1
looking for king 1, 6Pawn
0
looking for king 1, 7Pawn
0
looking for king 3, 1Pawn
0
looking for king 3, 5Pawn
0
looking for king 4, 7Pawn
0
looking for king 5, 4Pawn
0
looking for king 6, 0Pawn
0
looking for king 6, 1Pawn
0
looking for king 6, 2Pawn
0
looking for king 6, 3Pawn
0
looking for king 6, 5Pawn
0
looking for king 6, 6Pawn
0
looking for king 7, 0Rook
0
looking for king 7, 1Knight
0
looking for king 7, 2Bishop
0
looking for king 7, 3Queen
0
looking for king 7, 4King
1
From (4, 7) to (3, 7)
From (5, 4) to (4, 4)
From (6, 0) to (5, 0)
From (6, 0) to (4, 0)
From (6, 1) to (5, 1)
From (6, 1) to (4, 1)
From (6, 2) to (5, 2)
From (6, 2) to (4, 2)
From (6, 3) to (5, 3)
From (6, 3) to (4, 3)
From (6, 5) to (5, 5)
From (6, 5) to (4, 5)
From (6, 6) to (5, 6)
From (6, 6) to (4, 6)
From (7, 1) to (5, 2)
From (7, 1) to (5, 0)
From (7, 3) to (6, 4)
From (7, 3) to (5, 5)
From (7, 3) to (4, 6)
From (7, 3) to (3, 7)
From (7, 4) to (6, 4)
From (7, 5) to (6, 4)
From (7, 5) to (5, 3)
From (7, 5) to (4, 2)
From (7, 5) to (3, 1)
From (7, 6) to (5, 7)
From (7, 6) to (5, 5)
From (7, 6) to (6, 4)
From (7, 7) to (6, 7)
From (7, 7) to (5, 7)
[32;1m[Game] [0mPlayer's error code: 0
[32;1m[Game] [0mChecking move validity...
[32;1m[Board] [0mInitializing board...
[32;1m[Board] [0mLoading history file `championship/lizzie-iii-check-innit-mate/history.csv`...
[32;1m[Board] [0mLoaded 5 move(s).
[32;1m[Board] [0mLoading move file `championship/lizzie-iii-check-innit-mate/move.csv`...
[32;1m[Board] [0mBlack player is playing f8 to d6.
[32;1m[Board] [0m
[32;1m[Board] [0m    a b c d e f g h 
[32;1m[Board] [0m  -------------------
[32;1m[Board] [0m8 ||[30;1mr[0m|[30;1mk[0m|[30;1mb[0m|[30;1mQ[0m|[30;1mK[0m| |[30;1mk[0m|[30;1mr[0m|| 8
[32;1m[Board] [0m  -------------------
[32;1m[Board] [0m7 ||[30;1mp[0m|[30;1mp[0m|[30;1mp[0m|[30;1mp[0m| |[30;1mp[0m|[30;1mp[0m|[7;1m [0m|| 7
[32;1m[Board] [0m  -------------------
[32;1m[Board] [0m6 ||[7;1m [0m| |[7;1m [0m|[30;1mb[0m|[30;1mp[0m| |[7;1m [0m| || 6
[32;1m[Board] [0m  -------------------
[32;1m[Board] [0m5 || |[7;1m [0m| |[7;1m [0m| |[7;1m [0m| |[30;1mp[0m|| 5
[32;1m[Board] [0m  -------------------
[32;1m[Board] [0m4 ||[7;1m [0m|[0;1mp[0m|[7;1m [0m| |[7;1m [0m|[0;1mp[0m|[7;1m [0m| || 4
[32;1m[Board] [0m  -------------------
[32;1m[Board] [0m3 || |[7;1m [0m| |[7;1m [0m| |[7;1m [0m| |[7;1m [0m|| 3
[32;1m[Board] [0m  -------------------
[32;1m[Board] [0m2 ||[0;1mp[0m| |[0;1mp[0m|[0;1mp[0m|[0;1mp[0m|[0;1mK[0m|[0;1mp[0m|[0;1mp[0m|| 2
[32;1m[Board] [0m  -------------------
[32;1m[Board] [0m1 ||[0;1mr[0m|[0;1mk[0m|[0;1mb[0m|[0;1mQ[0m| |[0;1mb[0m|[0;1mk[0m|[0;1mr[0m|| 1
[32;1m[Board] [0m  -------------------
[32;1m[Board] [0m    a b c d e f g h
[32;1m[Board] [0m
[32;1m[Referee] [0mThis is the turn of the White player...
Input file: championship/lizzie-iii-check-innit-mate/history.csv
Output file: championship/lizzie-iii-check-innit-mate/move.csv
Turn of: white
Succesful move
b2b4
8 | R N B Q K B N R 
7 | P P P P P P P P 
6 | _ _ _ _ _ _ _ _ 
5 | _ _ _ _ _ _ _ _ 
4 | _ P _ _ _ _ _ _ 
3 | _ _ _ _ _ _ _ _ 
2 | P _ P P P P P P 
1 | R N B Q K B N R 
-------------------
  | A B C D E F G H 

Turn of: black
Succesful move
h7h5
8 | R N B Q K B N R 
7 | P P P P P P P _ 
6 | _ _ _ _ _ _ _ _ 
5 | _ _ _ _ _ _ _ P 
4 | _ P _ _ _ _ _ _ 
3 | _ _ _ _ _ _ _ _ 
2 | P _ P P P P P P 
1 | R N B Q K B N R 
-------------------
  | A B C D E F G H 

Turn of: white
Succesful move
f2f4
8 | R N B Q K B N R 
7 | P P P P P P P _ 
6 | _ _ _ _ _ _ _ _ 
5 | _ _ _ _ _ _ _ P 
4 | _ P _ _ _ P _ _ 
3 | _ _ _ _ _ _ _ _ 
2 | P _ P P P _ P P 
1 | R N B Q K B N R 
-------------------
  | A B C D E F G H 

Turn of: black
Succesful move
e7e6
8 | R N B Q K B N R 
7 | P P P P _ P P _ 
6 | _ _ _ _ P _ _ _ 
5 | _ _ _ _ _ _ _ P 
4 | _ P _ _ _ P _ _ 
3 | _ _ _ _ _ _ _ _ 
2 | P _ P P P _ P P 
1 | R N B Q K B N R 
-------------------
  | A B C D E F G H 

Turn of: white
Succesful move
e1f2
8 | R N B Q K B N R 
7 | P P P P _ P P _ 
6 | _ _ _ _ P _ _ _ 
5 | _ _ _ _ _ _ _ P 
4 | _ P _ _ _ P _ _ 
3 | _ _ _ _ _ _ _ _ 
2 | P _ P P P K P P 
1 | R N B Q _ B N R 
-------------------
  | A B C D E F G H 

Turn of: black
Succesful move
f8d6
8 | R N B Q K _ N R 
7 | P P P P _ P P _ 
6 | _ _ _ B P _ _ _ 
5 | _ _ _ _ _ _ _ P 
4 | _ P _ _ _ P _ _ 
3 | _ _ _ _ _ _ _ _ 
2 | P _ P P P K P P 
1 | R N B Q _ B N R 
-------------------
  | A B C D E F G H 

We are playing as White
Move history:
b2b4
h7h5
f2f4
e7e6
e1f2
f8d6
8 | R N B Q K _ N R 
7 | P P P P _ P P _ 
6 | _ _ _ B P _ _ _ 
5 | _ _ _ _ _ _ _ P 
4 | _ P _ _ _ P _ _ 
3 | _ _ _ _ _ _ _ _ 
2 | P _ P P P K P P 
1 | R N B Q _ B N R 
-------------------
  | A B C D E F G H 

It is white's turn to play.
AI's move: b4b5
Move written: b4b5
[32;1m[Game] [0mPlayer's error code: 0
[32;1m[Game] [0mChecking move validity...
[32;1m[Board] [0mInitializing board...
[32;1m[Board] [0mLoading history file `championship/lizzie-iii-check-innit-mate/history.csv`...
[32;1m[Board] [0mLoaded 6 move(s).
[32;1m[Board] [0mLoading move file `championship/lizzie-iii-check-innit-mate/move.csv`...
[32;1m[Board] [0mWhite player is playing b4 to b5.
[32;1m[Board] [0m
[32;1m[Board] [0m    a b c d e f g h 
[32;1m[Board] [0m  -------------------
[32;1m[Board] [0m8 ||[30;1mr[0m|[30;1mk[0m|[30;1mb[0m|[30;1mQ[0m|[30;1mK[0m| |[30;1mk[0m|[30;1mr[0m|| 8
[32;1m[Board] [0m  -------------------
[32;1m[Board] [0m7 ||[30;1mp[0m|[30;1mp[0m|[30;1mp[0m|[30;1mp[0m| |[30;1mp[0m|[30;1mp[0m|[7;1m [0m|| 7
[32;1m[Board] [0m  -------------------
[32;1m[Board] [0m6 ||[7;1m [0m| |[7;1m [0m|[30;1mb[0m|[30;1mp[0m| |[7;1m [0m| || 6
[32;1m[Board] [0m  -------------------
[32;1m[Board] [0m5 || |[0;1mp[0m| |[7;1m [0m| |[7;1m [0m| |[30;1mp[0m|| 5
[32;1m[Board] [0m  -------------------
[32;1m[Board] [0m4 ||[7;1m [0m| |[7;1m [0m| |[7;1m [0m|[0;1mp[0m|[7;1m [0m| || 4
[32;1m[Board] [0m  -------------------
[32;1m[Board] [0m3 || |[7;1m [0m| |[7;1m [0m| |[7;1m [0m| |[7;1m [0m|| 3
[32;1m[Board] [0m  -------------------
[32;1m[Board] [0m2 ||[0;1mp[0m| |[0;1mp[0m|[0;1mp[0m|[0;1mp[0m|[0;1mK[0m|[0;1mp[0m|[0;1mp[0m|| 2
[32;1m[Board] [0m  -------------------
[32;1m[Board] [0m1 ||[0;1mr[0m|[0;1mk[0m|[0;1mb[0m|[0;1mQ[0m| |[0;1mb[0m|[0;1mk[0m|[0;1mr[0m|| 1
[32;1m[Board] [0m  -------------------
[32;1m[Board] [0m    a b c d e f g h
[32;1m[Board] [0m
[32;1m[Referee] [0mThis is the turn of the Black player...
0 0 0 0 0 - 0 0 
0 0 0 0 - 0 0 - 
- - - 0 0 - - - 
- 1 - - - - - 0 
- - - - - 1 - - 
- - - - - - - - 
1 - 1 1 1 1 1 1 
1 1 1 1 - 1 1 1 
--------
looking for king 0, 0Rook
0
looking for king 0, 1Knight
0
looking for king 0, 2Bishop
0
looking for king 0, 3Queen
0
looking for king 0, 5Bishop
0
looking for king 0, 6Knight
0
looking for king 0, 7Rook
0
looking for king 1, 0Pawn
0
looking for king 1, 2Pawn
0
looking for king 1, 3Pawn
0
looking for king 1, 4Pawn
0
looking for king 1, 5King
1
looking for king 1, 6Pawn
0
looking for king 1, 7Pawn
0
looking for king 3, 5Pawn
0
looking for king 4, 1Pawn
0
looking for king 4, 7Pawn
0
looking for king 5, 3Bishop
0
looking for king 5, 4Pawn
0
looking for king 6, 0Pawn
0
looking for king 6, 1Pawn
0
looking for king 6, 2Pawn
0
looking for king 6, 3Pawn
0
looking for king 6, 5Pawn
0
looking for king 6, 6Pawn
0
looking for king 7, 0Rook
0
looking for king 7, 1Knight
0
looking for king 7, 2Bishop
0
looking for king 7, 3Queen
0
looking for king 7, 4King
1
From (4, 7) to (3, 7)
From (5, 3) to (6, 4)
From (5, 3) to (7, 5)
From (5, 3) to (4, 4)
From (5, 3) to (3, 5)
From (5, 3) to (4, 2)
From (5, 3) to (3, 1)
From (5, 3) to (2, 0)
From (5, 4) to (4, 4)
From (6, 0) to (5, 0)
From (6, 0) to (4, 0)
From (6, 1) to (5, 1)
From (6, 2) to (5, 2)
From (6, 2) to (4, 2)
From (6, 5) to (5, 5)
From (6, 5) to (4, 5)
From (6, 6) to (5, 6)
From (6, 6) to (4, 6)
From (7, 1) to (5, 2)
From (7, 1) to (5, 0)
From (7, 3) to (6, 4)
From (7, 3) to (5, 5)
From (7, 3) to (4, 6)
From (7, 3) to (3, 7)
From (7, 4) to (6, 4)
From (7, 4) to (7, 5)
From (7, 6) to (5, 7)
From (7, 6) to (5, 5)
From (7, 6) to (6, 4)
From (7, 7) to (6, 7)
From (7, 7) to (5, 7)
[32;1m[Game] [0mPlayer's error code: 0
[32;1m[Game] [0mChecking move validity...
[32;1m[Board] [0mInitializing board...
[32;1m[Board] [0mLoading history file `championship/lizzie-iii-check-innit-mate/history.csv`...
[32;1m[Board] [0mLoaded 7 move(s).
[32;1m[Board] [0mLoading move file `championship/lizzie-iii-check-innit-mate/move.csv`...
[32;1m[Board] [0mBlack player is playing d8 to g5.
[32;1m[Board] [0m
[32;1m[Board] [0m    a b c d e f g h 
[32;1m[Board] [0m  -------------------
[32;1m[Board] [0m8 ||[30;1mr[0m|[30;1mk[0m|[30;1mb[0m| |[30;1mK[0m| |[30;1mk[0m|[30;1mr[0m|| 8
[32;1m[Board] [0m  -------------------
[32;1m[Board] [0m7 ||[30;1mp[0m|[30;1mp[0m|[30;1mp[0m|[30;1mp[0m| |[30;1mp[0m|[30;1mp[0m|[7;1m [0m|| 7
[32;1m[Board] [0m  -------------------
[32;1m[Board] [0m6 ||[7;1m [0m| |[7;1m [0m|[30;1mb[0m|[30;1mp[0m| |[7;1m [0m| || 6
[32;1m[Board] [0m  -------------------
[32;1m[Board] [0m5 || |[0;1mp[0m| |[7;1m [0m| |[7;1m [0m|[30;1mQ[0m|[30;1mp[0m|| 5
[32;1m[Board] [0m  -------------------
[32;1m[Board] [0m4 ||[7;1m [0m| |[7;1m [0m| |[7;1m [0m|[0;1mp[0m|[7;1m [0m| || 4
[32;1m[Board] [0m  -------------------
[32;1m[Board] [0m3 || |[7;1m [0m| |[7;1m [0m| |[7;1m [0m| |[7;1m [0m|| 3
[32;1m[Board] [0m  -------------------
[32;1m[Board] [0m2 ||[0;1mp[0m| |[0;1mp[0m|[0;1mp[0m|[0;1mp[0m|[0;1mK[0m|[0;1mp[0m|[0;1mp[0m|| 2
[32;1m[Board] [0m  -------------------
[32;1m[Board] [0m1 ||[0;1mr[0m|[0;1mk[0m|[0;1mb[0m|[0;1mQ[0m| |[0;1mb[0m|[0;1mk[0m|[0;1mr[0m|| 1
[32;1m[Board] [0m  -------------------
[32;1m[Board] [0m    a b c d e f g h
[32;1m[Board] [0m
[32;1m[Referee] [0mThis is the turn of the White player...
Input file: championship/lizzie-iii-check-innit-mate/history.csv
Output file: championship/lizzie-iii-check-innit-mate/move.csv
Turn of: white
Succesful move
b2b4
8 | R N B Q K B N R 
7 | P P P P P P P P 
6 | _ _ _ _ _ _ _ _ 
5 | _ _ _ _ _ _ _ _ 
4 | _ P _ _ _ _ _ _ 
3 | _ _ _ _ _ _ _ _ 
2 | P _ P P P P P P 
1 | R N B Q K B N R 
-------------------
  | A B C D E F G H 

Turn of: black
Succesful move
h7h5
8 | R N B Q K B N R 
7 | P P P P P P P _ 
6 | _ _ _ _ _ _ _ _ 
5 | _ _ _ _ _ _ _ P 
4 | _ P _ _ _ _ _ _ 
3 | _ _ _ _ _ _ _ _ 
2 | P _ P P P P P P 
1 | R N B Q K B N R 
-------------------
  | A B C D E F G H 

Turn of: white
Succesful move
f2f4
8 | R N B Q K B N R 
7 | P P P P P P P _ 
6 | _ _ _ _ _ _ _ _ 
5 | _ _ _ _ _ _ _ P 
4 | _ P _ _ _ P _ _ 
3 | _ _ _ _ _ _ _ _ 
2 | P _ P P P _ P P 
1 | R N B Q K B N R 
-------------------
  | A B C D E F G H 

Turn of: black
Succesful move
e7e6
8 | R N B Q K B N R 
7 | P P P P _ P P _ 
6 | _ _ _ _ P _ _ _ 
5 | _ _ _ _ _ _ _ P 
4 | _ P _ _ _ P _ _ 
3 | _ _ _ _ _ _ _ _ 
2 | P _ P P P _ P P 
1 | R N B Q K B N R 
-------------------
  | A B C D E F G H 

Turn of: white
Succesful move
e1f2
8 | R N B Q K B N R 
7 | P P P P _ P P _ 
6 | _ _ _ _ P _ _ _ 
5 | _ _ _ _ _ _ _ P 
4 | _ P _ _ _ P _ _ 
3 | _ _ _ _ _ _ _ _ 
2 | P _ P P P K P P 
1 | R N B Q _ B N R 
-------------------
  | A B C D E F G H 

Turn of: black
Succesful move
f8d6
8 | R N B Q K _ N R 
7 | P P P P _ P P _ 
6 | _ _ _ B P _ _ _ 
5 | _ _ _ _ _ _ _ P 
4 | _ P _ _ _ P _ _ 
3 | _ _ _ _ _ _ _ _ 
2 | P _ P P P K P P 
1 | R N B Q _ B N R 
-------------------
  | A B C D E F G H 

Turn of: white
Succesful move
b4b5
8 | R N B Q K _ N R 
7 | P P P P _ P P _ 
6 | _ _ _ B P _ _ _ 
5 | _ P _ _ _ _ _ P 
4 | _ _ _ _ _ P _ _ 
3 | _ _ _ _ _ _ _ _ 
2 | P _ P P P K P P 
1 | R N B Q _ B N R 
-------------------
  | A B C D E F G H 

Turn of: black
Succesful move
d8g5
8 | R N B _ K _ N R 
7 | P P P P _ P P _ 
6 | _ _ _ B P _ _ _ 
5 | _ P _ _ _ _ Q P 
4 | _ _ _ _ _ P _ _ 
3 | _ _ _ _ _ _ _ _ 
2 | P _ P P P K P P 
1 | R N B Q _ B N R 
-------------------
  | A B C D E F G H 

We are playing as White
Move history:
b2b4
h7h5
f2f4
e7e6
e1f2
f8d6
b4b5
d8g5
8 | R N B _ K _ N R 
7 | P P P P _ P P _ 
6 | _ _ _ B P _ _ _ 
5 | _ P _ _ _ _ Q P 
4 | _ _ _ _ _ P _ _ 
3 | _ _ _ _ _ _ _ _ 
2 | P _ P P P K P P 
1 | R N B Q _ B N R 
-------------------
  | A B C D E F G H 

It is white's turn to play.
AI's move: c2c3
Move written: c2c3
[32;1m[Game] [0mPlayer's error code: 0
[32;1m[Game] [0mChecking move validity...
[32;1m[Board] [0mInitializing board...
[32;1m[Board] [0mLoading history file `championship/lizzie-iii-check-innit-mate/history.csv`...
[32;1m[Board] [0mLoaded 8 move(s).
[32;1m[Board] [0mLoading move file `championship/lizzie-iii-check-innit-mate/move.csv`...
[32;1m[Board] [0mWhite player is playing c2 to c3.
[32;1m[Board] [0m
[32;1m[Board] [0m    a b c d e f g h 
[32;1m[Board] [0m  -------------------
[32;1m[Board] [0m8 ||[30;1mr[0m|[30;1mk[0m|[30;1mb[0m| |[30;1mK[0m| |[30;1mk[0m|[30;1mr[0m|| 8
[32;1m[Board] [0m  -------------------
[32;1m[Board] [0m7 ||[30;1mp[0m|[30;1mp[0m|[30;1mp[0m|[30;1mp[0m| |[30;1mp[0m|[30;1mp[0m|[7;1m [0m|| 7
[32;1m[Board] [0m  -------------------
[32;1m[Board] [0m6 ||[7;1m [0m| |[7;1m [0m|[30;1mb[0m|[30;1mp[0m| |[7;1m [0m| || 6
[32;1m[Board] [0m  -------------------
[32;1m[Board] [0m5 || |[0;1mp[0m| |[7;1m [0m| |[7;1m [0m|[30;1mQ[0m|[30;1mp[0m|| 5
[32;1m[Board] [0m  -------------------
[32;1m[Board] [0m4 ||[7;1m [0m| |[7;1m [0m| |[7;1m [0m|[0;1mp[0m|[7;1m [0m| || 4
[32;1m[Board] [0m  -------------------
[32;1m[Board] [0m3 || |[7;1m [0m|[0;1mp[0m|[7;1m [0m| |[7;1m [0m| |[7;1m [0m|| 3
[32;1m[Board] [0m  -------------------
[32;1m[Board] [0m2 ||[0;1mp[0m| |[7;1m [0m|[0;1mp[0m|[0;1mp[0m|[0;1mK[0m|[0;1mp[0m|[0;1mp[0m|| 2
[32;1m[Board] [0m  -------------------
[32;1m[Board] [0m1 ||[0;1mr[0m|[0;1mk[0m|[0;1mb[0m|[0;1mQ[0m| |[0;1mb[0m|[0;1mk[0m|[0;1mr[0m|| 1
[32;1m[Board] [0m  -------------------
[32;1m[Board] [0m    a b c d e f g h
[32;1m[Board] [0m
[32;1m[Referee] [0mThis is the turn of the Black player...
0 0 0 - 0 - 0 0 
0 0 0 0 - 0 0 - 
- - - 0 0 - - - 
- 1 - - - - 0 0 
- - - - - 1 - - 
- - 1 - - - - - 
1 - - 1 1 1 1 1 
1 1 1 1 - 1 1 1 
--------
looking for king 0, 0Rook
0
looking for king 0, 1Knight
0
looking for king 0, 2Bishop
0
looking for king 0, 3Queen
0
looking for king 0, 5Bishop
0
looking for king 0, 6Knight
0
looking for king 0, 7Rook
0
looking for king 1, 0Pawn
0
looking for king 1, 3Pawn
0
looking for king 1, 4Pawn
0
looking for king 1, 5King
1
looking for king 1, 6Pawn
0
looking for king 1, 7Pawn
0
looking for king 2, 2Pawn
0
looking for king 3, 5Pawn
0
looking for king 4, 1Pawn
0
looking for king 4, 6Queen
0
looking for king 4, 7Pawn
0
looking for king 5, 3Bishop
0
looking for king 5, 4Pawn
0
looking for king 6, 0Pawn
0
looking for king 6, 1Pawn
0
looking for king 6, 2Pawn
0
looking for king 6, 3Pawn
0
looking for king 6, 5Pawn
0
looking for king 6, 6Pawn
0
looking for king 7, 0Rook
0
looking for king 7, 1Knight
0
looking for king 7, 2Bishop
0
looking for king 7, 4King
1
From (4, 6) to (5, 7)
From (4, 6) to (5, 5)
From (4, 6) to (6, 4)
From (4, 6) to (7, 3)
From (4, 6) to (3, 7)
From (4, 6) to (3, 5)
From (4, 6) to (5, 6)
From (4, 6) to (3, 6)
From (4, 6) to (2, 6)
From (4, 6) to (1, 6)
From (4, 6) to (4, 5)
From (4, 6) to (4, 4)
From (4, 6) to (4, 3)
From (4, 6) to (4, 2)
From (4, 6) to (4, 1)
From (4, 7) to (3, 7)
From (5, 3) to (6, 4)
From (5, 3) to (7, 5)
From (5, 3) to (4, 4)
From (5, 3) to (3, 5)
From (5, 3) to (4, 2)
From (5, 3) to (3, 1)
From (5, 3) to (2, 0)
From (5, 4) to (4, 4)
From (6, 0) to (5, 0)
From (6, 0) to (4, 0)
From (6, 1) to (5, 1)
From (6, 2) to (5, 2)
From (6, 2) to (4, 2)
From (6, 5) to (5, 5)
From (6, 5) to (4, 5)
From (6, 6) to (5, 6)
From (7, 1) to (5, 2)
From (7, 1) to (5, 0)
From (7, 4) to (6, 4)
From (7, 4) to (7, 5)
From (7, 4) to (7, 3)
From (7, 6) to (5, 7)
From (7, 6) to (5, 5)
From (7, 6) to (6, 4)
From (7, 7) to (6, 7)
From (7, 7) to (5, 7)
[32;1m[Game] [0mPlayer's error code: 0
[32;1m[Game] [0mChecking move validity...
[32;1m[Board] [0mInitializing board...
[32;1m[Board] [0mLoading history file `championship/lizzie-iii-check-innit-mate/history.csv`...
[32;1m[Board] [0mLoaded 9 move(s).
[32;1m[Board] [0mLoading move file `championship/lizzie-iii-check-innit-mate/move.csv`...
[32;1m[Board] [0mBlack player is playing e6 to e5.
[32;1m[Board] [0m
[32;1m[Board] [0m    a b c d e f g h 
[32;1m[Board] [0m  -------------------
[32;1m[Board] [0m8 ||[30;1mr[0m|[30;1mk[0m|[30;1mb[0m| |[30;1mK[0m| |[30;1mk[0m|[30;1mr[0m|| 8
[32;1m[Board] [0m  -------------------
[32;1m[Board] [0m7 ||[30;1mp[0m|[30;1mp[0m|[30;1mp[0m|[30;1mp[0m| |[30;1mp[0m|[30;1mp[0m|[7;1m [0m|| 7
[32;1m[Board] [0m  -------------------
[32;1m[Board] [0m6 ||[7;1m [0m| |[7;1m [0m|[30;1mb[0m|[7;1m [0m| |[7;1m [0m| || 6
[32;1m[Board] [0m  -------------------
[32;1m[Board] [0m5 || |[0;1mp[0m| |[7;1m [0m|[30;1mp[0m|[7;1m [0m|[30;1mQ[0m|[30;1mp[0m|| 5
[32;1m[Board] [0m  -------------------
[32;1m[Board] [0m4 ||[7;1m [0m| |[7;1m [0m| |[7;1m [0m|[0;1mp[0m|[7;1m [0m| || 4
[32;1m[Board] [0m  -------------------
[32;1m[Board] [0m3 || |[7;1m [0m|[0;1mp[0m|[7;1m [0m| |[7;1m [0m| |[7;1m [0m|| 3
[32;1m[Board] [0m  -------------------
[32;1m[Board] [0m2 ||[0;1mp[0m| |[7;1m [0m|[0;1mp[0m|[0;1mp[0m|[0;1mK[0m|[0;1mp[0m|[0;1mp[0m|| 2
[32;1m[Board] [0m  -------------------
[32;1m[Board] [0m1 ||[0;1mr[0m|[0;1mk[0m|[0;1mb[0m|[0;1mQ[0m| |[0;1mb[0m|[0;1mk[0m|[0;1mr[0m|| 1
[32;1m[Board] [0m  -------------------
[32;1m[Board] [0m    a b c d e f g h
[32;1m[Board] [0m
[32;1m[Referee] [0mThis is the turn of the White player...
Input file: championship/lizzie-iii-check-innit-mate/history.csv
Output file: championship/lizzie-iii-check-innit-mate/move.csv
Turn of: white
Succesful move
b2b4
8 | R N B Q K B N R 
7 | P P P P P P P P 
6 | _ _ _ _ _ _ _ _ 
5 | _ _ _ _ _ _ _ _ 
4 | _ P _ _ _ _ _ _ 
3 | _ _ _ _ _ _ _ _ 
2 | P _ P P P P P P 
1 | R N B Q K B N R 
-------------------
  | A B C D E F G H 

Turn of: black
Succesful move
h7h5
8 | R N B Q K B N R 
7 | P P P P P P P _ 
6 | _ _ _ _ _ _ _ _ 
5 | _ _ _ _ _ _ _ P 
4 | _ P _ _ _ _ _ _ 
3 | _ _ _ _ _ _ _ _ 
2 | P _ P P P P P P 
1 | R N B Q K B N R 
-------------------
  | A B C D E F G H 

Turn of: white
Succesful move
f2f4
8 | R N B Q K B N R 
7 | P P P P P P P _ 
6 | _ _ _ _ _ _ _ _ 
5 | _ _ _ _ _ _ _ P 
4 | _ P _ _ _ P _ _ 
3 | _ _ _ _ _ _ _ _ 
2 | P _ P P P _ P P 
1 | R N B Q K B N R 
-------------------
  | A B C D E F G H 

Turn of: black
Succesful move
e7e6
8 | R N B Q K B N R 
7 | P P P P _ P P _ 
6 | _ _ _ _ P _ _ _ 
5 | _ _ _ _ _ _ _ P 
4 | _ P _ _ _ P _ _ 
3 | _ _ _ _ _ _ _ _ 
2 | P _ P P P _ P P 
1 | R N B Q K B N R 
-------------------
  | A B C D E F G H 

Turn of: white
Succesful move
e1f2
8 | R N B Q K B N R 
7 | P P P P _ P P _ 
6 | _ _ _ _ P _ _ _ 
5 | _ _ _ _ _ _ _ P 
4 | _ P _ _ _ P _ _ 
3 | _ _ _ _ _ _ _ _ 
2 | P _ P P P K P P 
1 | R N B Q _ B N R 
-------------------
  | A B C D E F G H 

Turn of: black
Succesful move
f8d6
8 | R N B Q K _ N R 
7 | P P P P _ P P _ 
6 | _ _ _ B P _ _ _ 
5 | _ _ _ _ _ _ _ P 
4 | _ P _ _ _ P _ _ 
3 | _ _ _ _ _ _ _ _ 
2 | P _ P P P K P P 
1 | R N B Q _ B N R 
-------------------
  | A B C D E F G H 

Turn of: white
Succesful move
b4b5
8 | R N B Q K _ N R 
7 | P P P P _ P P _ 
6 | _ _ _ B P _ _ _ 
5 | _ P _ _ _ _ _ P 
4 | _ _ _ _ _ P _ _ 
3 | _ _ _ _ _ _ _ _ 
2 | P _ P P P K P P 
1 | R N B Q _ B N R 
-------------------
  | A B C D E F G H 

Turn of: black
Succesful move
d8g5
8 | R N B _ K _ N R 
7 | P P P P _ P P _ 
6 | _ _ _ B P _ _ _ 
5 | _ P _ _ _ _ Q P 
4 | _ _ _ _ _ P _ _ 
3 | _ _ _ _ _ _ _ _ 
2 | P _ P P P K P P 
1 | R N B Q _ B N R 
-------------------
  | A B C D E F G H 

Turn of: white
Succesful move
c2c3
8 | R N B _ K _ N R 
7 | P P P P _ P P _ 
6 | _ _ _ B P _ _ _ 
5 | _ P _ _ _ _ Q P 
4 | _ _ _ _ _ P _ _ 
3 | _ _ P _ _ _ _ _ 
2 | P _ _ P P K P P 
1 | R N B Q _ B N R 
-------------------
  | A B C D E F G H 

Turn of: black
Succesful move
e6e5
8 | R N B _ K _ N R 
7 | P P P P _ P P _ 
6 | _ _ _ B _ _ _ _ 
5 | _ P _ _ P _ Q P 
4 | _ _ _ _ _ P _ _ 
3 | _ _ P _ _ _ _ _ 
2 | P _ _ P P K P P 
1 | R N B Q _ B N R 
-------------------
  | A B C D E F G H 

We are playing as White
Move history:
b2b4
h7h5
f2f4
e7e6
e1f2
f8d6
b4b5
d8g5
c2c3
e6e5
8 | R N B _ K _ N R 
7 | P P P P _ P P _ 
6 | _ _ _ B _ _ _ _ 
5 | _ P _ _ P _ Q P 
4 | _ _ _ _ _ P _ _ 
3 | _ _ P _ _ _ _ _ 
2 | P _ _ P P K P P 
1 | R N B Q _ B N R 
-------------------
  | A B C D E F G H 

It is white's turn to play.
AI's move: c1a3
Move written: c1a3
[32;1m[Game] [0mPlayer's error code: 0
[32;1m[Game] [0mChecking move validity...
[32;1m[Board] [0mInitializing board...
[32;1m[Board] [0mLoading history file `championship/lizzie-iii-check-innit-mate/history.csv`...
[32;1m[Board] [0mLoaded 10 move(s).
[32;1m[Board] [0mLoading move file `championship/lizzie-iii-check-innit-mate/move.csv`...
[32;1m[Board] [0mWhite player is playing c1 to a3.
[32;1m[Board] [0m
[32;1m[Board] [0m    a b c d e f g h 
[32;1m[Board] [0m  -------------------
[32;1m[Board] [0m8 ||[30;1mr[0m|[30;1mk[0m|[30;1mb[0m| |[30;1mK[0m| |[30;1mk[0m|[30;1mr[0m|| 8
[32;1m[Board] [0m  -------------------
[32;1m[Board] [0m7 ||[30;1mp[0m|[30;1mp[0m|[30;1mp[0m|[30;1mp[0m| |[30;1mp[0m|[30;1mp[0m|[7;1m [0m|| 7
[32;1m[Board] [0m  -------------------
[32;1m[Board] [0m6 ||[7;1m [0m| |[7;1m [0m|[30;1mb[0m|[7;1m [0m| |[7;1m [0m| || 6
[32;1m[Board] [0m  -------------------
[32;1m[Board] [0m5 || |[0;1mp[0m| |[7;1m [0m|[30;1mp[0m|[7;1m [0m|[30;1mQ[0m|[30;1mp[0m|| 5
[32;1m[Board] [0m  -------------------
[32;1m[Board] [0m4 ||[7;1m [0m| |[7;1m [0m| |[7;1m [0m|[0;1mp[0m|[7;1m [0m| || 4
[32;1m[Board] [0m  -------------------
[32;1m[Board] [0m3 ||[0;1mb[0m|[7;1m [0m|[0;1mp[0m|[7;1m [0m| |[7;1m [0m| |[7;1m [0m|| 3
[32;1m[Board] [0m  -------------------
[32;1m[Board] [0m2 ||[0;1mp[0m| |[7;1m [0m|[0;1mp[0m|[0;1mp[0m|[0;1mK[0m|[0;1mp[0m|[0;1mp[0m|| 2
[32;1m[Board] [0m  -------------------
[32;1m[Board] [0m1 ||[0;1mr[0m|[0;1mk[0m| |[0;1mQ[0m| |[0;1mb[0m|[0;1mk[0m|[0;1mr[0m|| 1
[32;1m[Board] [0m  -------------------
[32;1m[Board] [0m    a b c d e f g h
[32;1m[Board] [0m
[32;1m[Referee] [0mThis is the turn of the Black player...
0 0 0 - 0 - 0 0 
0 0 0 0 - 0 0 - 
- - - 0 - - - - 
- 1 - - 0 - 0 0 
- - - - - 1 - - 
1 - 1 - - - - - 
1 - - 1 1 1 1 1 
1 1 - 1 - 1 1 1 
--------
looking for king 0, 0Rook
0
looking for king 0, 1Knight
0
looking for king 0, 3Queen
0
looking for king 0, 5Bishop
0
looking for king 0, 6Knight
0
looking for king 0, 7Rook
0
looking for king 1, 0Pawn
0
looking for king 1, 3Pawn
0
looking for king 1, 4Pawn
0
looking for king 1, 5King
1
looking for king 1, 6Pawn
0
looking for king 1, 7Pawn
0
looking for king 2, 0Bishop
0
looking for king 2, 2Pawn
0
looking for king 3, 5Pawn
0
looking for king 4, 1Pawn
0
looking for king 4, 4Pawn
0
looking for king 4, 6Queen
0
looking for king 4, 7Pawn
0
looking for king 5, 3Bishop
0
looking for king 6, 0Pawn
0
looking for king 6, 1Pawn
0
looking for king 6, 2Pawn
0
looking for king 6, 3Pawn
0
looking for king 6, 5Pawn
0
looking for king 6, 6Pawn
0
looking for king 7, 0Rook
0
looking for king 7, 1Knight
0
looking for king 7, 2Bishop
0
looking for king 7, 4King
1
From (4, 4) to (3, 4)
From (4, 4) to (3, 5)
From (4, 6) to (5, 7)
From (4, 6) to (5, 5)
From (4, 6) to (6, 4)
From (4, 6) to (7, 3)
From (4, 6) to (3, 7)
From (4, 6) to (3, 5)
From (4, 6) to (5, 6)
From (4, 6) to (3, 6)
From (4, 6) to (2, 6)
From (4, 6) to (1, 6)
From (4, 6) to (4, 5)
From (4, 7) to (3, 7)
From (5, 3) to (6, 4)
From (5, 3) to (7, 5)
From (5, 3) to (4, 2)
From (5, 3) to (3, 1)
From (5, 3) to (2, 0)
From (6, 0) to (5, 0)
From (6, 0) to (4, 0)
From (6, 1) to (5, 1)
From (6, 2) to (5, 2)
From (6, 2) to (4, 2)
From (6, 5) to (5, 5)
From (6, 5) to (4, 5)
From (6, 6) to (5, 6)
From (7, 1) to (5, 2)
From (7, 1) to (5, 0)
From (7, 4) to (6, 4)
From (7, 4) to (7, 5)
From (7, 4) to (7, 3)
From (7, 6) to (5, 7)
From (7, 6) to (5, 5)
From (7, 6) to (6, 4)
From (7, 7) to (6, 7)
From (7, 7) to (5, 7)
[32;1m[Game] [0mPlayer's error code: 0
[32;1m[Game] [0mChecking move validity...
[32;1m[Board] [0mInitializing board...
[32;1m[Board] [0mLoading history file `championship/lizzie-iii-check-innit-mate/history.csv`...
[32;1m[Board] [0mLoaded 11 move(s).
[32;1m[Board] [0mLoading move file `championship/lizzie-iii-check-innit-mate/move.csv`...
[32;1m[Board] [0mBlack player is playing g5 to h6.
[32;1m[Board] [0m
[32;1m[Board] [0m    a b c d e f g h 
[32;1m[Board] [0m  -------------------
[32;1m[Board] [0m8 ||[30;1mr[0m|[30;1mk[0m|[30;1mb[0m| |[30;1mK[0m| |[30;1mk[0m|[30;1mr[0m|| 8
[32;1m[Board] [0m  -------------------
[32;1m[Board] [0m7 ||[30;1mp[0m|[30;1mp[0m|[30;1mp[0m|[30;1mp[0m| |[30;1mp[0m|[30;1mp[0m|[7;1m [0m|| 7
[32;1m[Board] [0m  -------------------
[32;1m[Board] [0m6 ||[7;1m [0m| |[7;1m [0m|[30;1mb[0m|[7;1m [0m| |[7;1m [0m|[30;1mQ[0m|| 6
[32;1m[Board] [0m  -------------------
[32;1m[Board] [0m5 || |[0;1mp[0m| |[7;1m [0m|[30;1mp[0m|[7;1m [0m| |[30;1mp[0m|| 5
[32;1m[Board] [0m  -------------------
[32;1m[Board] [0m4 ||[7;1m [0m| |[7;1m [0m| |[7;1m [0m|[0;1mp[0m|[7;1m [0m| || 4
[32;1m[Board] [0m  -------------------
[32;1m[Board] [0m3 ||[0;1mb[0m|[7;1m [0m|[0;1mp[0m|[7;1m [0m| |[7;1m [0m| |[7;1m [0m|| 3
[32;1m[Board] [0m  -------------------
[32;1m[Board] [0m2 ||[0;1mp[0m| |[7;1m [0m|[0;1mp[0m|[0;1mp[0m|[0;1mK[0m|[0;1mp[0m|[0;1mp[0m|| 2
[32;1m[Board] [0m  -------------------
[32;1m[Board] [0m1 ||[0;1mr[0m|[0;1mk[0m| |[0;1mQ[0m| |[0;1mb[0m|[0;1mk[0m|[0;1mr[0m|| 1
[32;1m[Board] [0m  -------------------
[32;1m[Board] [0m    a b c d e f g h
[32;1m[Board] [0m
[32;1m[Referee] [0mThis is the turn of the White player...
Input file: championship/lizzie-iii-check-innit-mate/history.csv
Output file: championship/lizzie-iii-check-innit-mate/move.csv
Turn of: white
Succesful move
b2b4
8 | R N B Q K B N R 
7 | P P P P P P P P 
6 | _ _ _ _ _ _ _ _ 
5 | _ _ _ _ _ _ _ _ 
4 | _ P _ _ _ _ _ _ 
3 | _ _ _ _ _ _ _ _ 
2 | P _ P P P P P P 
1 | R N B Q K B N R 
-------------------
  | A B C D E F G H 

Turn of: black
Succesful move
h7h5
8 | R N B Q K B N R 
7 | P P P P P P P _ 
6 | _ _ _ _ _ _ _ _ 
5 | _ _ _ _ _ _ _ P 
4 | _ P _ _ _ _ _ _ 
3 | _ _ _ _ _ _ _ _ 
2 | P _ P P P P P P 
1 | R N B Q K B N R 
-------------------
  | A B C D E F G H 

Turn of: white
Succesful move
f2f4
8 | R N B Q K B N R 
7 | P P P P P P P _ 
6 | _ _ _ _ _ _ _ _ 
5 | _ _ _ _ _ _ _ P 
4 | _ P _ _ _ P _ _ 
3 | _ _ _ _ _ _ _ _ 
2 | P _ P P P _ P P 
1 | R N B Q K B N R 
-------------------
  | A B C D E F G H 

Turn of: black
Succesful move
e7e6
8 | R N B Q K B N R 
7 | P P P P _ P P _ 
6 | _ _ _ _ P _ _ _ 
5 | _ _ _ _ _ _ _ P 
4 | _ P _ _ _ P _ _ 
3 | _ _ _ _ _ _ _ _ 
2 | P _ P P P _ P P 
1 | R N B Q K B N R 
-------------------
  | A B C D E F G H 

Turn of: white
Succesful move
e1f2
8 | R N B Q K B N R 
7 | P P P P _ P P _ 
6 | _ _ _ _ P _ _ _ 
5 | _ _ _ _ _ _ _ P 
4 | _ P _ _ _ P _ _ 
3 | _ _ _ _ _ _ _ _ 
2 | P _ P P P K P P 
1 | R N B Q _ B N R 
-------------------
  | A B C D E F G H 

Turn of: black
Succesful move
f8d6
8 | R N B Q K _ N R 
7 | P P P P _ P P _ 
6 | _ _ _ B P _ _ _ 
5 | _ _ _ _ _ _ _ P 
4 | _ P _ _ _ P _ _ 
3 | _ _ _ _ _ _ _ _ 
2 | P _ P P P K P P 
1 | R N B Q _ B N R 
-------------------
  | A B C D E F G H 

Turn of: white
Succesful move
b4b5
8 | R N B Q K _ N R 
7 | P P P P _ P P _ 
6 | _ _ _ B P _ _ _ 
5 | _ P _ _ _ _ _ P 
4 | _ _ _ _ _ P _ _ 
3 | _ _ _ _ _ _ _ _ 
2 | P _ P P P K P P 
1 | R N B Q _ B N R 
-------------------
  | A B C D E F G H 

Turn of: black
Succesful move
d8g5
8 | R N B _ K _ N R 
7 | P P P P _ P P _ 
6 | _ _ _ B P _ _ _ 
5 | _ P _ _ _ _ Q P 
4 | _ _ _ _ _ P _ _ 
3 | _ _ _ _ _ _ _ _ 
2 | P _ P P P K P P 
1 | R N B Q _ B N R 
-------------------
  | A B C D E F G H 

Turn of: white
Succesful move
c2c3
8 | R N B _ K _ N R 
7 | P P P P _ P P _ 
6 | _ _ _ B P _ _ _ 
5 | _ P _ _ _ _ Q P 
4 | _ _ _ _ _ P _ _ 
3 | _ _ P _ _ _ _ _ 
2 | P _ _ P P K P P 
1 | R N B Q _ B N R 
-------------------
  | A B C D E F G H 

Turn of: black
Succesful move
e6e5
8 | R N B _ K _ N R 
7 | P P P P _ P P _ 
6 | _ _ _ B _ _ _ _ 
5 | _ P _ _ P _ Q P 
4 | _ _ _ _ _ P _ _ 
3 | _ _ P _ _ _ _ _ 
2 | P _ _ P P K P P 
1 | R N B Q _ B N R 
-------------------
  | A B C D E F G H 

Turn of: white
Succesful move
c1a3
8 | R N B _ K _ N R 
7 | P P P P _ P P _ 
6 | _ _ _ B _ _ _ _ 
5 | _ P _ _ P _ Q P 
4 | _ _ _ _ _ P _ _ 
3 | B _ P _ _ _ _ _ 
2 | P _ _ P P K P P 
1 | R N _ Q _ B N R 
-------------------
  | A B C D E F G H 

Turn of: black
Succesful move
g5h6
8 | R N B _ K _ N R 
7 | P P P P _ P P _ 
6 | _ _ _ B _ _ _ Q 
5 | _ P _ _ P _ _ P 
4 | _ _ _ _ _ P _ _ 
3 | B _ P _ _ _ _ _ 
2 | P _ _ P P K P P 
1 | R N _ Q _ B N R 
-------------------
  | A B C D E F G H 

We are playing as White
Move history:
b2b4
h7h5
f2f4
e7e6
e1f2
f8d6
b4b5
d8g5
c2c3
e6e5
c1a3
g5h6
8 | R N B _ K _ N R 
7 | P P P P _ P P _ 
6 | _ _ _ B _ _ _ Q 
5 | _ P _ _ P _ _ P 
4 | _ _ _ _ _ P _ _ 
3 | B _ P _ _ _ _ _ 
2 | P _ _ P P K P P 
1 | R N _ Q _ B N R 
-------------------
  | A B C D E F G H 

It is white's turn to play.
AI's move: a3d6
Move written: a3d6
[32;1m[Game] [0mPlayer's error code: 0
[32;1m[Game] [0mChecking move validity...
[32;1m[Board] [0mInitializing board...
[32;1m[Board] [0mLoading history file `championship/lizzie-iii-check-innit-mate/history.csv`...
[32;1m[Board] [0mLoaded 12 move(s).
[32;1m[Board] [0mLoading move file `championship/lizzie-iii-check-innit-mate/move.csv`...
[32;1m[Board] [0mWhite player is playing a3 to d6.
[32;1m[Board] [0m[5;1mWhite Bishop is taking Black Bishop.[0m
[32;1m[Board] [0m
[32;1m[Board] [0m    a b c d e f g h 
[32;1m[Board] [0m  -------------------
[32;1m[Board] [0m8 ||[30;1mr[0m|[30;1mk[0m|[30;1mb[0m| |[30;1mK[0m| |[30;1mk[0m|[30;1mr[0m|| 8
[32;1m[Board] [0m  -------------------
[32;1m[Board] [0m7 ||[30;1mp[0m|[30;1mp[0m|[30;1mp[0m|[30;1mp[0m| |[30;1mp[0m|[30;1mp[0m|[7;1m [0m|| 7
[32;1m[Board] [0m  -------------------
[32;1m[Board] [0m6 ||[7;1m [0m| |[7;1m [0m|[0;1mb[0m|[7;1m [0m| |[7;1m [0m|[30;1mQ[0m|| 6
[32;1m[Board] [0m  -------------------
[32;1m[Board] [0m5 || |[0;1mp[0m| |[7;1m [0m|[30;1mp[0m|[7;1m [0m| |[30;1mp[0m|| 5
[32;1m[Board] [0m  -------------------
[32;1m[Board] [0m4 ||[7;1m [0m| |[7;1m [0m| |[7;1m [0m|[0;1mp[0m|[7;1m [0m| || 4
[32;1m[Board] [0m  -------------------
[32;1m[Board] [0m3 || |[7;1m [0m|[0;1mp[0m|[7;1m [0m| |[7;1m [0m| |[7;1m [0m|| 3
[32;1m[Board] [0m  -------------------
[32;1m[Board] [0m2 ||[0;1mp[0m| |[7;1m [0m|[0;1mp[0m|[0;1mp[0m|[0;1mK[0m|[0;1mp[0m|[0;1mp[0m|| 2
[32;1m[Board] [0m  -------------------
[32;1m[Board] [0m1 ||[0;1mr[0m|[0;1mk[0m| |[0;1mQ[0m| |[0;1mb[0m|[0;1mk[0m|[0;1mr[0m|| 1
[32;1m[Board] [0m  -------------------
[32;1m[Board] [0m    a b c d e f g h
[32;1m[Board] [0m
[32;1m[Referee] [0mThis is the turn of the Black player...
0 0 0 - 0 - 0 0 
0 0 0 0 - 0 0 - 
- - - 1 - - - 0 
- 1 - - 0 - - 0 
- - - - - 1 - - 
- - 1 - - - - - 
1 - - 1 1 1 1 1 
1 1 - 1 - 1 1 1 
--------
looking for king 0, 0Rook
0
looking for king 0, 1Knight
0
looking for king 0, 3Queen
0
looking for king 0, 5Bishop
0
looking for king 0, 6Knight
0
looking for king 0, 7Rook
0
looking for king 1, 0Pawn
0
looking for king 1, 3Pawn
0
looking for king 1, 4Pawn
0
looking for king 1, 5King
1
looking for king 1, 6Pawn
0
looking for king 1, 7Pawn
0
looking for king 2, 2Pawn
0
looking for king 3, 5Pawn
0
looking for king 4, 1Pawn
0
looking for king 4, 4Pawn
0
looking for king 4, 7Pawn
0
looking for king 5, 3Bishop
0
looking for king 5, 7Queen
0
looking for king 6, 0Pawn
0
looking for king 6, 1Pawn
0
looking for king 6, 2Pawn
0
looking for king 6, 3Pawn
0
looking for king 6, 5Pawn
0
looking for king 6, 6Pawn
0
looking for king 7, 0Rook
0
looking for king 7, 1Knight
0
looking for king 7, 2Bishop
0
looking for king 7, 4King
1
From (4, 4) to (3, 4)
From (4, 4) to (3, 5)
From (4, 7) to (3, 7)
From (5, 7) to (4, 6)
From (5, 7) to (3, 5)
From (5, 7) to (6, 7)
From (5, 7) to (5, 6)
From (5, 7) to (5, 5)
From (5, 7) to (5, 4)
From (5, 7) to (5, 3)
From (6, 0) to (5, 0)
From (6, 0) to (4, 0)
From (6, 1) to (5, 1)
From (6, 2) to (5, 2)
From (6, 2) to (4, 2)
From (6, 2) to (5, 3)
From (6, 5) to (5, 5)
From (6, 5) to (4, 5)
From (6, 6) to (5, 6)
From (6, 6) to (4, 6)
From (7, 1) to (5, 2)
From (7, 1) to (5, 0)
From (7, 4) to (6, 4)
From (7, 4) to (7, 5)
From (7, 4) to (7, 3)
From (7, 6) to (5, 5)
From (7, 6) to (6, 4)
From (7, 7) to (6, 7)
[32;1m[Game] [0mPlayer's error code: 0
[32;1m[Game] [0mChecking move validity...
[32;1m[Board] [0mInitializing board...
[32;1m[Board] [0mLoading history file `championship/lizzie-iii-check-innit-mate/history.csv`...
[32;1m[Board] [0mLoaded 13 move(s).
[32;1m[Board] [0mLoading move file `championship/lizzie-iii-check-innit-mate/move.csv`...
[32;1m[Board] [0mBlack player is playing e5 to e4.
[32;1m[Board] [0m
[32;1m[Board] [0m    a b c d e f g h 
[32;1m[Board] [0m  -------------------
[32;1m[Board] [0m8 ||[30;1mr[0m|[30;1mk[0m|[30;1mb[0m| |[30;1mK[0m| |[30;1mk[0m|[30;1mr[0m|| 8
[32;1m[Board] [0m  -------------------
[32;1m[Board] [0m7 ||[30;1mp[0m|[30;1mp[0m|[30;1mp[0m|[30;1mp[0m| |[30;1mp[0m|[30;1mp[0m|[7;1m [0m|| 7
[32;1m[Board] [0m  -------------------
[32;1m[Board] [0m6 ||[7;1m [0m| |[7;1m [0m|[0;1mb[0m|[7;1m [0m| |[7;1m [0m|[30;1mQ[0m|| 6
[32;1m[Board] [0m  -------------------
[32;1m[Board] [0m5 || |[0;1mp[0m| |[7;1m [0m| |[7;1m [0m| |[30;1mp[0m|| 5
[32;1m[Board] [0m  -------------------
[32;1m[Board] [0m4 ||[7;1m [0m| |[7;1m [0m| |[30;1mp[0m|[0;1mp[0m|[7;1m [0m| || 4
[32;1m[Board] [0m  -------------------
[32;1m[Board] [0m3 || |[7;1m [0m|[0;1mp[0m|[7;1m [0m| |[7;1m [0m| |[7;1m [0m|| 3
[32;1m[Board] [0m  -------------------
[32;1m[Board] [0m2 ||[0;1mp[0m| |[7;1m [0m|[0;1mp[0m|[0;1mp[0m|[0;1mK[0m|[0;1mp[0m|[0;1mp[0m|| 2
[32;1m[Board] [0m  -------------------
[32;1m[Board] [0m1 ||[0;1mr[0m|[0;1mk[0m| |[0;1mQ[0m| |[0;1mb[0m|[0;1mk[0m|[0;1mr[0m|| 1
[32;1m[Board] [0m  -------------------
[32;1m[Board] [0m    a b c d e f g h
[32;1m[Board] [0m
[32;1m[Referee] [0mThis is the turn of the White player...
Input file: championship/lizzie-iii-check-innit-mate/history.csv
Output file: championship/lizzie-iii-check-innit-mate/move.csv
Turn of: white
Succesful move
b2b4
8 | R N B Q K B N R 
7 | P P P P P P P P 
6 | _ _ _ _ _ _ _ _ 
5 | _ _ _ _ _ _ _ _ 
4 | _ P _ _ _ _ _ _ 
3 | _ _ _ _ _ _ _ _ 
2 | P _ P P P P P P 
1 | R N B Q K B N R 
-------------------
  | A B C D E F G H 

Turn of: black
Succesful move
h7h5
8 | R N B Q K B N R 
7 | P P P P P P P _ 
6 | _ _ _ _ _ _ _ _ 
5 | _ _ _ _ _ _ _ P 
4 | _ P _ _ _ _ _ _ 
3 | _ _ _ _ _ _ _ _ 
2 | P _ P P P P P P 
1 | R N B Q K B N R 
-------------------
  | A B C D E F G H 

Turn of: white
Succesful move
f2f4
8 | R N B Q K B N R 
7 | P P P P P P P _ 
6 | _ _ _ _ _ _ _ _ 
5 | _ _ _ _ _ _ _ P 
4 | _ P _ _ _ P _ _ 
3 | _ _ _ _ _ _ _ _ 
2 | P _ P P P _ P P 
1 | R N B Q K B N R 
-------------------
  | A B C D E F G H 

Turn of: black
Succesful move
e7e6
8 | R N B Q K B N R 
7 | P P P P _ P P _ 
6 | _ _ _ _ P _ _ _ 
5 | _ _ _ _ _ _ _ P 
4 | _ P _ _ _ P _ _ 
3 | _ _ _ _ _ _ _ _ 
2 | P _ P P P _ P P 
1 | R N B Q K B N R 
-------------------
  | A B C D E F G H 

Turn of: white
Succesful move
e1f2
8 | R N B Q K B N R 
7 | P P P P _ P P _ 
6 | _ _ _ _ P _ _ _ 
5 | _ _ _ _ _ _ _ P 
4 | _ P _ _ _ P _ _ 
3 | _ _ _ _ _ _ _ _ 
2 | P _ P P P K P P 
1 | R N B Q _ B N R 
-------------------
  | A B C D E F G H 

Turn of: black
Succesful move
f8d6
8 | R N B Q K _ N R 
7 | P P P P _ P P _ 
6 | _ _ _ B P _ _ _ 
5 | _ _ _ _ _ _ _ P 
4 | _ P _ _ _ P _ _ 
3 | _ _ _ _ _ _ _ _ 
2 | P _ P P P K P P 
1 | R N B Q _ B N R 
-------------------
  | A B C D E F G H 

Turn of: white
Succesful move
b4b5
8 | R N B Q K _ N R 
7 | P P P P _ P P _ 
6 | _ _ _ B P _ _ _ 
5 | _ P _ _ _ _ _ P 
4 | _ _ _ _ _ P _ _ 
3 | _ _ _ _ _ _ _ _ 
2 | P _ P P P K P P 
1 | R N B Q _ B N R 
-------------------
  | A B C D E F G H 

Turn of: black
Succesful move
d8g5
8 | R N B _ K _ N R 
7 | P P P P _ P P _ 
6 | _ _ _ B P _ _ _ 
5 | _ P _ _ _ _ Q P 
4 | _ _ _ _ _ P _ _ 
3 | _ _ _ _ _ _ _ _ 
2 | P _ P P P K P P 
1 | R N B Q _ B N R 
-------------------
  | A B C D E F G H 

Turn of: white
Succesful move
c2c3
8 | R N B _ K _ N R 
7 | P P P P _ P P _ 
6 | _ _ _ B P _ _ _ 
5 | _ P _ _ _ _ Q P 
4 | _ _ _ _ _ P _ _ 
3 | _ _ P _ _ _ _ _ 
2 | P _ _ P P K P P 
1 | R N B Q _ B N R 
-------------------
  | A B C D E F G H 

Turn of: black
Succesful move
e6e5
8 | R N B _ K _ N R 
7 | P P P P _ P P _ 
6 | _ _ _ B _ _ _ _ 
5 | _ P _ _ P _ Q P 
4 | _ _ _ _ _ P _ _ 
3 | _ _ P _ _ _ _ _ 
2 | P _ _ P P K P P 
1 | R N B Q _ B N R 
-------------------
  | A B C D E F G H 

Turn of: white
Succesful move
c1a3
8 | R N B _ K _ N R 
7 | P P P P _ P P _ 
6 | _ _ _ B _ _ _ _ 
5 | _ P _ _ P _ Q P 
4 | _ _ _ _ _ P _ _ 
3 | B _ P _ _ _ _ _ 
2 | P _ _ P P K P P 
1 | R N _ Q _ B N R 
-------------------
  | A B C D E F G H 

Turn of: black
Succesful move
g5h6
8 | R N B _ K _ N R 
7 | P P P P _ P P _ 
6 | _ _ _ B _ _ _ Q 
5 | _ P _ _ P _ _ P 
4 | _ _ _ _ _ P _ _ 
3 | B _ P _ _ _ _ _ 
2 | P _ _ P P K P P 
1 | R N _ Q _ B N R 
-------------------
  | A B C D E F G H 

Turn of: white
Succesful move
a3d6
8 | R N B _ K _ N R 
7 | P P P P _ P P _ 
6 | _ _ _ B _ _ _ Q 
5 | _ P _ _ P _ _ P 
4 | _ _ _ _ _ P _ _ 
3 | _ _ P _ _ _ _ _ 
2 | P _ _ P P K P P 
1 | R N _ Q _ B N R 
-------------------
  | A B C D E F G H 

Turn of: black
Succesful move
e5e4
8 | R N B _ K _ N R 
7 | P P P P _ P P _ 
6 | _ _ _ B _ _ _ Q 
5 | _ P _ _ _ _ _ P 
4 | _ _ _ _ P P _ _ 
3 | _ _ P _ _ _ _ _ 
2 | P _ _ P P K P P 
1 | R N _ Q _ B N R 
-------------------
  | A B C D E F G H 

We are playing as White
Move history:
b2b4
h7h5
f2f4
e7e6
e1f2
f8d6
b4b5
d8g5
c2c3
e6e5
c1a3
g5h6
a3d6
e5e4
8 | R N B _ K _ N R 
7 | P P P P _ P P _ 
6 | _ _ _ B _ _ _ Q 
5 | _ P _ _ _ _ _ P 
4 | _ _ _ _ P P _ _ 
3 | _ _ P _ _ _ _ _ 
2 | P _ _ P P K P P 
1 | R N _ Q _ B N R 
-------------------
  | A B C D E F G H 

It is white's turn to play.
AI's move: d6e5
Move written: d6e5
[32;1m[Game] [0mPlayer's error code: 0
[32;1m[Game] [0mChecking move validity...
[32;1m[Board] [0mInitializing board...
[32;1m[Board] [0mLoading history file `championship/lizzie-iii-check-innit-mate/history.csv`...
[32;1m[Board] [0mLoaded 14 move(s).
[32;1m[Board] [0mLoading move file `championship/lizzie-iii-check-innit-mate/move.csv`...
[32;1m[Board] [0mWhite player is playing d6 to e5.
[32;1m[Board] [0m
[32;1m[Board] [0m    a b c d e f g h 
[32;1m[Board] [0m  -------------------
[32;1m[Board] [0m8 ||[30;1mr[0m|[30;1mk[0m|[30;1mb[0m| |[30;1mK[0m| |[30;1mk[0m|[30;1mr[0m|| 8
[32;1m[Board] [0m  -------------------
[32;1m[Board] [0m7 ||[30;1mp[0m|[30;1mp[0m|[30;1mp[0m|[30;1mp[0m| |[30;1mp[0m|[30;1mp[0m|[7;1m [0m|| 7
[32;1m[Board] [0m  -------------------
[32;1m[Board] [0m6 ||[7;1m [0m| |[7;1m [0m| |[7;1m [0m| |[7;1m [0m|[30;1mQ[0m|| 6
[32;1m[Board] [0m  -------------------
[32;1m[Board] [0m5 || |[0;1mp[0m| |[7;1m [0m|[0;1mb[0m|[7;1m [0m| |[30;1mp[0m|| 5
[32;1m[Board] [0m  -------------------
[32;1m[Board] [0m4 ||[7;1m [0m| |[7;1m [0m| |[30;1mp[0m|[0;1mp[0m|[7;1m [0m| || 4
[32;1m[Board] [0m  -------------------
[32;1m[Board] [0m3 || |[7;1m [0m|[0;1mp[0m|[7;1m [0m| |[7;1m [0m| |[7;1m [0m|| 3
[32;1m[Board] [0m  -------------------
[32;1m[Board] [0m2 ||[0;1mp[0m| |[7;1m [0m|[0;1mp[0m|[0;1mp[0m|[0;1mK[0m|[0;1mp[0m|[0;1mp[0m|| 2
[32;1m[Board] [0m  -------------------
[32;1m[Board] [0m1 ||[0;1mr[0m|[0;1mk[0m| |[0;1mQ[0m| |[0;1mb[0m|[0;1mk[0m|[0;1mr[0m|| 1
[32;1m[Board] [0m  -------------------
[32;1m[Board] [0m    a b c d e f g h
[32;1m[Board] [0m
[32;1m[Referee] [0mThis is the turn of the Black player...
0 0 0 - 0 - 0 0 
0 0 0 0 - 0 0 - 
- - - - - - - 0 
- 1 - - 1 - - 0 
- - - - 0 1 - - 
- - 1 - - - - - 
1 - - 1 1 1 1 1 
1 1 - 1 - 1 1 1 
--------
looking for king 0, 0Rook
0
looking for king 0, 1Knight
0
looking for king 0, 3Queen
0
looking for king 0, 5Bishop
0
looking for king 0, 6Knight
0
looking for king 0, 7Rook
0
looking for king 1, 0Pawn
0
looking for king 1, 3Pawn
0
looking for king 1, 4Pawn
0
looking for king 1, 5King
1
looking for king 1, 6Pawn
0
looking for king 1, 7Pawn
0
looking for king 2, 2Pawn
0
looking for king 3, 4Pawn
0
looking for king 3, 5Pawn
0
looking for king 4, 1Pawn
0
looking for king 4, 4Bishop
0
looking for king 4, 7Pawn
0
looking for king 5, 7Queen
0
looking for king 6, 0Pawn
0
looking for king 6, 1Pawn
0
looking for king 6, 2Pawn
0
looking for king 6, 3Pawn
0
looking for king 6, 5Pawn
0
looking for king 6, 6Pawn
0
looking for king 7, 0Rook
0
looking for king 7, 1Knight
0
looking for king 7, 2Bishop
0
looking for king 7, 4King
1
From (3, 4) to (2, 4)
From (4, 7) to (3, 7)
From (5, 7) to (4, 6)
From (5, 7) to (3, 5)
From (5, 7) to (6, 7)
From (5, 7) to (5, 6)
From (5, 7) to (5, 5)
From (5, 7) to (5, 4)
From (5, 7) to (5, 3)
From (5, 7) to (5, 2)
From (5, 7) to (5, 1)
From (5, 7) to (5, 0)
From (6, 0) to (5, 0)
From (6, 0) to (4, 0)
From (6, 1) to (5, 1)
From (6, 2) to (5, 2)
From (6, 2) to (4, 2)
From (6, 3) to (5, 3)
From (6, 3) to (4, 3)
From (6, 5) to (5, 5)
From (6, 5) to (4, 5)
From (6, 6) to (5, 6)
From (6, 6) to (4, 6)
From (7, 1) to (5, 2)
From (7, 1) to (5, 0)
From (7, 4) to (6, 4)
From (7, 4) to (7, 5)
From (7, 4) to (7, 3)
From (7, 6) to (5, 5)
From (7, 6) to (6, 4)
From (7, 7) to (6, 7)
[32;1m[Game] [0mPlayer's error code: 0
[32;1m[Game] [0mChecking move validity...
[32;1m[Board] [0mInitializing board...
[32;1m[Board] [0mLoading history file `championship/lizzie-iii-check-innit-mate/history.csv`...
[32;1m[Board] [0mLoaded 15 move(s).
[32;1m[Board] [0mLoading move file `championship/lizzie-iii-check-innit-mate/move.csv`...
[32;1m[Board] [0mBlack player is playing b8 to a6.
[32;1m[Board] [0m
[32;1m[Board] [0m    a b c d e f g h 
[32;1m[Board] [0m  -------------------
[32;1m[Board] [0m8 ||[30;1mr[0m| |[30;1mb[0m| |[30;1mK[0m| |[30;1mk[0m|[30;1mr[0m|| 8
[32;1m[Board] [0m  -------------------
[32;1m[Board] [0m7 ||[30;1mp[0m|[30;1mp[0m|[30;1mp[0m|[30;1mp[0m| |[30;1mp[0m|[30;1mp[0m|[7;1m [0m|| 7
[32;1m[Board] [0m  -------------------
[32;1m[Board] [0m6 ||[30;1mk[0m| |[7;1m [0m| |[7;1m [0m| |[7;1m [0m|[30;1mQ[0m|| 6
[32;1m[Board] [0m  -------------------
[32;1m[Board] [0m5 || |[0;1mp[0m| |[7;1m [0m|[0;1mb[0m|[7;1m [0m| |[30;1mp[0m|| 5
[32;1m[Board] [0m  -------------------
[32;1m[Board] [0m4 ||[7;1m [0m| |[7;1m [0m| |[30;1mp[0m|[0;1mp[0m|[7;1m [0m| || 4
[32;1m[Board] [0m  -------------------
[32;1m[Board] [0m3 || |[7;1m [0m|[0;1mp[0m|[7;1m [0m| |[7;1m [0m| |[7;1m [0m|| 3
[32;1m[Board] [0m  -------------------
[32;1m[Board] [0m2 ||[0;1mp[0m| |[7;1m [0m|[0;1mp[0m|[0;1mp[0m|[0;1mK[0m|[0;1mp[0m|[0;1mp[0m|| 2
[32;1m[Board] [0m  -------------------
[32;1m[Board] [0m1 ||[0;1mr[0m|[0;1mk[0m| |[0;1mQ[0m| |[0;1mb[0m|[0;1mk[0m|[0;1mr[0m|| 1
[32;1m[Board] [0m  -------------------
[32;1m[Board] [0m    a b c d e f g h
[32;1m[Board] [0m
[32;1m[Referee] [0mThis is the turn of the White player...
Input file: championship/lizzie-iii-check-innit-mate/history.csv
Output file: championship/lizzie-iii-check-innit-mate/move.csv
Turn of: white
Succesful move
b2b4
8 | R N B Q K B N R 
7 | P P P P P P P P 
6 | _ _ _ _ _ _ _ _ 
5 | _ _ _ _ _ _ _ _ 
4 | _ P _ _ _ _ _ _ 
3 | _ _ _ _ _ _ _ _ 
2 | P _ P P P P P P 
1 | R N B Q K B N R 
-------------------
  | A B C D E F G H 

Turn of: black
Succesful move
h7h5
8 | R N B Q K B N R 
7 | P P P P P P P _ 
6 | _ _ _ _ _ _ _ _ 
5 | _ _ _ _ _ _ _ P 
4 | _ P _ _ _ _ _ _ 
3 | _ _ _ _ _ _ _ _ 
2 | P _ P P P P P P 
1 | R N B Q K B N R 
-------------------
  | A B C D E F G H 

Turn of: white
Succesful move
f2f4
8 | R N B Q K B N R 
7 | P P P P P P P _ 
6 | _ _ _ _ _ _ _ _ 
5 | _ _ _ _ _ _ _ P 
4 | _ P _ _ _ P _ _ 
3 | _ _ _ _ _ _ _ _ 
2 | P _ P P P _ P P 
1 | R N B Q K B N R 
-------------------
  | A B C D E F G H 

Turn of: black
Succesful move
e7e6
8 | R N B Q K B N R 
7 | P P P P _ P P _ 
6 | _ _ _ _ P _ _ _ 
5 | _ _ _ _ _ _ _ P 
4 | _ P _ _ _ P _ _ 
3 | _ _ _ _ _ _ _ _ 
2 | P _ P P P _ P P 
1 | R N B Q K B N R 
-------------------
  | A B C D E F G H 

Turn of: white
Succesful move
e1f2
8 | R N B Q K B N R 
7 | P P P P _ P P _ 
6 | _ _ _ _ P _ _ _ 
5 | _ _ _ _ _ _ _ P 
4 | _ P _ _ _ P _ _ 
3 | _ _ _ _ _ _ _ _ 
2 | P _ P P P K P P 
1 | R N B Q _ B N R 
-------------------
  | A B C D E F G H 

Turn of: black
Succesful move
f8d6
8 | R N B Q K _ N R 
7 | P P P P _ P P _ 
6 | _ _ _ B P _ _ _ 
5 | _ _ _ _ _ _ _ P 
4 | _ P _ _ _ P _ _ 
3 | _ _ _ _ _ _ _ _ 
2 | P _ P P P K P P 
1 | R N B Q _ B N R 
-------------------
  | A B C D E F G H 

Turn of: white
Succesful move
b4b5
8 | R N B Q K _ N R 
7 | P P P P _ P P _ 
6 | _ _ _ B P _ _ _ 
5 | _ P _ _ _ _ _ P 
4 | _ _ _ _ _ P _ _ 
3 | _ _ _ _ _ _ _ _ 
2 | P _ P P P K P P 
1 | R N B Q _ B N R 
-------------------
  | A B C D E F G H 

Turn of: black
Succesful move
d8g5
8 | R N B _ K _ N R 
7 | P P P P _ P P _ 
6 | _ _ _ B P _ _ _ 
5 | _ P _ _ _ _ Q P 
4 | _ _ _ _ _ P _ _ 
3 | _ _ _ _ _ _ _ _ 
2 | P _ P P P K P P 
1 | R N B Q _ B N R 
-------------------
  | A B C D E F G H 

Turn of: white
Succesful move
c2c3
8 | R N B _ K _ N R 
7 | P P P P _ P P _ 
6 | _ _ _ B P _ _ _ 
5 | _ P _ _ _ _ Q P 
4 | _ _ _ _ _ P _ _ 
3 | _ _ P _ _ _ _ _ 
2 | P _ _ P P K P P 
1 | R N B Q _ B N R 
-------------------
  | A B C D E F G H 

Turn of: black
Succesful move
e6e5
8 | R N B _ K _ N R 
7 | P P P P _ P P _ 
6 | _ _ _ B _ _ _ _ 
5 | _ P _ _ P _ Q P 
4 | _ _ _ _ _ P _ _ 
3 | _ _ P _ _ _ _ _ 
2 | P _ _ P P K P P 
1 | R N B Q _ B N R 
-------------------
  | A B C D E F G H 

Turn of: white
Succesful move
c1a3
8 | R N B _ K _ N R 
7 | P P P P _ P P _ 
6 | _ _ _ B _ _ _ _ 
5 | _ P _ _ P _ Q P 
4 | _ _ _ _ _ P _ _ 
3 | B _ P _ _ _ _ _ 
2 | P _ _ P P K P P 
1 | R N _ Q _ B N R 
-------------------
  | A B C D E F G H 

Turn of: black
Succesful move
g5h6
8 | R N B _ K _ N R 
7 | P P P P _ P P _ 
6 | _ _ _ B _ _ _ Q 
5 | _ P _ _ P _ _ P 
4 | _ _ _ _ _ P _ _ 
3 | B _ P _ _ _ _ _ 
2 | P _ _ P P K P P 
1 | R N _ Q _ B N R 
-------------------
  | A B C D E F G H 

Turn of: white
Succesful move
a3d6
8 | R N B _ K _ N R 
7 | P P P P _ P P _ 
6 | _ _ _ B _ _ _ Q 
5 | _ P _ _ P _ _ P 
4 | _ _ _ _ _ P _ _ 
3 | _ _ P _ _ _ _ _ 
2 | P _ _ P P K P P 
1 | R N _ Q _ B N R 
-------------------
  | A B C D E F G H 

Turn of: black
Succesful move
e5e4
8 | R N B _ K _ N R 
7 | P P P P _ P P _ 
6 | _ _ _ B _ _ _ Q 
5 | _ P _ _ _ _ _ P 
4 | _ _ _ _ P P _ _ 
3 | _ _ P _ _ _ _ _ 
2 | P _ _ P P K P P 
1 | R N _ Q _ B N R 
-------------------
  | A B C D E F G H 

Turn of: white
Succesful move
d6e5
8 | R N B _ K _ N R 
7 | P P P P _ P P _ 
6 | _ _ _ _ _ _ _ Q 
5 | _ P _ _ B _ _ P 
4 | _ _ _ _ P P _ _ 
3 | _ _ P _ _ _ _ _ 
2 | P _ _ P P K P P 
1 | R N _ Q _ B N R 
-------------------
  | A B C D E F G H 

Turn of: black
Succesful move
b8a6
8 | R _ B _ K _ N R 
7 | P P P P _ P P _ 
6 | N _ _ _ _ _ _ Q 
5 | _ P _ _ B _ _ P 
4 | _ _ _ _ P P _ _ 
3 | _ _ P _ _ _ _ _ 
2 | P _ _ P P K P P 
1 | R N _ Q _ B N R 
-------------------
  | A B C D E F G H 

We are playing as White
Move history:
b2b4
h7h5
f2f4
e7e6
e1f2
f8d6
b4b5
d8g5
c2c3
e6e5
c1a3
g5h6
a3d6
e5e4
d6e5
b8a6
8 | R _ B _ K _ N R 
7 | P P P P _ P P _ 
6 | N _ _ _ _ _ _ Q 
5 | _ P _ _ B _ _ P 
4 | _ _ _ _ P P _ _ 
3 | _ _ P _ _ _ _ _ 
2 | P _ _ P P K P P 
1 | R N _ Q _ B N R 
-------------------
  | A B C D E F G H 

It is white's turn to play.
AI's move: g2g4
Move written: g2g4
[32;1m[Game] [0mPlayer's error code: 0
[32;1m[Game] [0mChecking move validity...
[32;1m[Board] [0mInitializing board...
[32;1m[Board] [0mLoading history file `championship/lizzie-iii-check-innit-mate/history.csv`...
[32;1m[Board] [0mLoaded 16 move(s).
[32;1m[Board] [0mLoading move file `championship/lizzie-iii-check-innit-mate/move.csv`...
[32;1m[Board] [0mWhite player is playing g2 to g4.
[32;1m[Board] [0m
[32;1m[Board] [0m    a b c d e f g h 
[32;1m[Board] [0m  -------------------
[32;1m[Board] [0m8 ||[30;1mr[0m| |[30;1mb[0m| |[30;1mK[0m| |[30;1mk[0m|[30;1mr[0m|| 8
[32;1m[Board] [0m  -------------------
[32;1m[Board] [0m7 ||[30;1mp[0m|[30;1mp[0m|[30;1mp[0m|[30;1mp[0m| |[30;1mp[0m|[30;1mp[0m|[7;1m [0m|| 7
[32;1m[Board] [0m  -------------------
[32;1m[Board] [0m6 ||[30;1mk[0m| |[7;1m [0m| |[7;1m [0m| |[7;1m [0m|[30;1mQ[0m|| 6
[32;1m[Board] [0m  -------------------
[32;1m[Board] [0m5 || |[0;1mp[0m| |[7;1m [0m|[0;1mb[0m|[7;1m [0m| |[30;1mp[0m|| 5
[32;1m[Board] [0m  -------------------
[32;1m[Board] [0m4 ||[7;1m [0m| |[7;1m [0m| |[30;1mp[0m|[0;1mp[0m|[0;1mp[0m| || 4
[32;1m[Board] [0m  -------------------
[32;1m[Board] [0m3 || |[7;1m [0m|[0;1mp[0m|[7;1m [0m| |[7;1m [0m| |[7;1m [0m|| 3
[32;1m[Board] [0m  -------------------
[32;1m[Board] [0m2 ||[0;1mp[0m| |[7;1m [0m|[0;1mp[0m|[0;1mp[0m|[0;1mK[0m|[7;1m [0m|[0;1mp[0m|| 2
[32;1m[Board] [0m  -------------------
[32;1m[Board] [0m1 ||[0;1mr[0m|[0;1mk[0m| |[0;1mQ[0m| |[0;1mb[0m|[0;1mk[0m|[0;1mr[0m|| 1
[32;1m[Board] [0m  -------------------
[32;1m[Board] [0m    a b c d e f g h
[32;1m[Board] [0m
[32;1m[Referee] [0mThis is the turn of the Black player...
0 - 0 - 0 - 0 0 
0 0 0 0 - 0 0 - 
0 - - - - - - 0 
- 1 - - 1 - - 0 
- - - - 0 1 1 - 
- - 1 - - - - - 
1 - - 1 1 1 - 1 
1 1 - 1 - 1 1 1 
--------
looking for king 0, 0Rook
0
looking for king 0, 1Knight
0
looking for king 0, 3Queen
0
looking for king 0, 5Bishop
0
looking for king 0, 6Knight
0
looking for king 0, 7Rook
0
looking for king 1, 0Pawn
0
looking for king 1, 3Pawn
0
looking for king 1, 4Pawn
0
looking for king 1, 5King
1
looking for king 1, 7Pawn
0
looking for king 2, 2Pawn
0
looking for king 3, 4Pawn
0
looking for king 3, 5Pawn
0
looking for king 3, 6Pawn
0
looking for king 4, 1Pawn
0
looking for king 4, 4Bishop
0
looking for king 4, 7Pawn
0
looking for king 5, 0Knight
0
looking for king 5, 7Queen
0
looking for king 6, 0Pawn
0
looking for king 6, 1Pawn
0
looking for king 6, 2Pawn
0
looking for king 6, 3Pawn
0
looking for king 6, 5Pawn
0
looking for king 6, 6Pawn
0
looking for king 7, 0Rook
0
looking for king 7, 2Bishop
0
looking for king 7, 4King
1
From (3, 4) to (2, 4)
From (4, 7) to (3, 7)
From (4, 7) to (3, 6)
From (5, 0) to (7, 1)
From (5, 0) to (3, 1)
From (5, 0) to (4, 2)
From (5, 7) to (4, 6)
From (5, 7) to (3, 5)
From (5, 7) to (6, 7)
From (5, 7) to (5, 6)
From (5, 7) to (5, 5)
From (5, 7) to (5, 4)
From (5, 7) to (5, 3)
From (5, 7) to (5, 2)
From (5, 7) to (5, 1)
From (6, 1) to (5, 1)
From (6, 2) to (5, 2)
From (6, 2) to (4, 2)
From (6, 3) to (5, 3)
From (6, 3) to (4, 3)
From (6, 5) to (5, 5)
From (6, 5) to (4, 5)
From (6, 6) to (5, 6)
From (6, 6) to (4, 6)
From (7, 0) to (7, 1)
From (7, 4) to (6, 4)
From (7, 4) to (7, 5)
From (7, 4) to (7, 3)
From (7, 6) to (5, 5)
From (7, 6) to (6, 4)
From (7, 7) to (6, 7)
[32;1m[Game] [0mPlayer's error code: 0
[32;1m[Game] [0mChecking move validity...
[32;1m[Board] [0mInitializing board...
[32;1m[Board] [0mLoading history file `championship/lizzie-iii-check-innit-mate/history.csv`...
[32;1m[Board] [0mLoaded 17 move(s).
[32;1m[Board] [0mLoading move file `championship/lizzie-iii-check-innit-mate/move.csv`...
[32;1m[Board] [0mBlack player is playing h6 to e6.
[32;1m[Board] [0m
[32;1m[Board] [0m    a b c d e f g h 
[32;1m[Board] [0m  -------------------
[32;1m[Board] [0m8 ||[30;1mr[0m| |[30;1mb[0m| |[30;1mK[0m| |[30;1mk[0m|[30;1mr[0m|| 8
[32;1m[Board] [0m  -------------------
[32;1m[Board] [0m7 ||[30;1mp[0m|[30;1mp[0m|[30;1mp[0m|[30;1mp[0m| |[30;1mp[0m|[30;1mp[0m|[7;1m [0m|| 7
[32;1m[Board] [0m  -------------------
[32;1m[Board] [0m6 ||[30;1mk[0m| |[7;1m [0m| |[30;1mQ[0m| |[7;1m [0m| || 6
[32;1m[Board] [0m  -------------------
[32;1m[Board] [0m5 || |[0;1mp[0m| |[7;1m [0m|[0;1mb[0m|[7;1m [0m| |[30;1mp[0m|| 5
[32;1m[Board] [0m  -------------------
[32;1m[Board] [0m4 ||[7;1m [0m| |[7;1m [0m| |[30;1mp[0m|[0;1mp[0m|[0;1mp[0m| || 4
[32;1m[Board] [0m  -------------------
[32;1m[Board] [0m3 || |[7;1m [0m|[0;1mp[0m|[7;1m [0m| |[7;1m [0m| |[7;1m [0m|| 3
[32;1m[Board] [0m  -------------------
[32;1m[Board] [0m2 ||[0;1mp[0m| |[7;1m [0m|[0;1mp[0m|[0;1mp[0m|[0;1mK[0m|[7;1m [0m|[0;1mp[0m|| 2
[32;1m[Board] [0m  -------------------
[32;1m[Board] [0m1 ||[0;1mr[0m|[0;1mk[0m| |[0;1mQ[0m| |[0;1mb[0m|[0;1mk[0m|[0;1mr[0m|| 1
[32;1m[Board] [0m  -------------------
[32;1m[Board] [0m    a b c d e f g h
[32;1m[Board] [0m
[32;1m[Referee] [0mThis is the turn of the White player...
Input file: championship/lizzie-iii-check-innit-mate/history.csv
Output file: championship/lizzie-iii-check-innit-mate/move.csv
Turn of: white
Succesful move
b2b4
8 | R N B Q K B N R 
7 | P P P P P P P P 
6 | _ _ _ _ _ _ _ _ 
5 | _ _ _ _ _ _ _ _ 
4 | _ P _ _ _ _ _ _ 
3 | _ _ _ _ _ _ _ _ 
2 | P _ P P P P P P 
1 | R N B Q K B N R 
-------------------
  | A B C D E F G H 

Turn of: black
Succesful move
h7h5
8 | R N B Q K B N R 
7 | P P P P P P P _ 
6 | _ _ _ _ _ _ _ _ 
5 | _ _ _ _ _ _ _ P 
4 | _ P _ _ _ _ _ _ 
3 | _ _ _ _ _ _ _ _ 
2 | P _ P P P P P P 
1 | R N B Q K B N R 
-------------------
  | A B C D E F G H 

Turn of: white
Succesful move
f2f4
8 | R N B Q K B N R 
7 | P P P P P P P _ 
6 | _ _ _ _ _ _ _ _ 
5 | _ _ _ _ _ _ _ P 
4 | _ P _ _ _ P _ _ 
3 | _ _ _ _ _ _ _ _ 
2 | P _ P P P _ P P 
1 | R N B Q K B N R 
-------------------
  | A B C D E F G H 

Turn of: black
Succesful move
e7e6
8 | R N B Q K B N R 
7 | P P P P _ P P _ 
6 | _ _ _ _ P _ _ _ 
5 | _ _ _ _ _ _ _ P 
4 | _ P _ _ _ P _ _ 
3 | _ _ _ _ _ _ _ _ 
2 | P _ P P P _ P P 
1 | R N B Q K B N R 
-------------------
  | A B C D E F G H 

Turn of: white
Succesful move
e1f2
8 | R N B Q K B N R 
7 | P P P P _ P P _ 
6 | _ _ _ _ P _ _ _ 
5 | _ _ _ _ _ _ _ P 
4 | _ P _ _ _ P _ _ 
3 | _ _ _ _ _ _ _ _ 
2 | P _ P P P K P P 
1 | R N B Q _ B N R 
-------------------
  | A B C D E F G H 

Turn of: black
Succesful move
f8d6
8 | R N B Q K _ N R 
7 | P P P P _ P P _ 
6 | _ _ _ B P _ _ _ 
5 | _ _ _ _ _ _ _ P 
4 | _ P _ _ _ P _ _ 
3 | _ _ _ _ _ _ _ _ 
2 | P _ P P P K P P 
1 | R N B Q _ B N R 
-------------------
  | A B C D E F G H 

Turn of: white
Succesful move
b4b5
8 | R N B Q K _ N R 
7 | P P P P _ P P _ 
6 | _ _ _ B P _ _ _ 
5 | _ P _ _ _ _ _ P 
4 | _ _ _ _ _ P _ _ 
3 | _ _ _ _ _ _ _ _ 
2 | P _ P P P K P P 
1 | R N B Q _ B N R 
-------------------
  | A B C D E F G H 

Turn of: black
Succesful move
d8g5
8 | R N B _ K _ N R 
7 | P P P P _ P P _ 
6 | _ _ _ B P _ _ _ 
5 | _ P _ _ _ _ Q P 
4 | _ _ _ _ _ P _ _ 
3 | _ _ _ _ _ _ _ _ 
2 | P _ P P P K P P 
1 | R N B Q _ B N R 
-------------------
  | A B C D E F G H 

Turn of: white
Succesful move
c2c3
8 | R N B _ K _ N R 
7 | P P P P _ P P _ 
6 | _ _ _ B P _ _ _ 
5 | _ P _ _ _ _ Q P 
4 | _ _ _ _ _ P _ _ 
3 | _ _ P _ _ _ _ _ 
2 | P _ _ P P K P P 
1 | R N B Q _ B N R 
-------------------
  | A B C D E F G H 

Turn of: black
Succesful move
e6e5
8 | R N B _ K _ N R 
7 | P P P P _ P P _ 
6 | _ _ _ B _ _ _ _ 
5 | _ P _ _ P _ Q P 
4 | _ _ _ _ _ P _ _ 
3 | _ _ P _ _ _ _ _ 
2 | P _ _ P P K P P 
1 | R N B Q _ B N R 
-------------------
  | A B C D E F G H 

Turn of: white
Succesful move
c1a3
8 | R N B _ K _ N R 
7 | P P P P _ P P _ 
6 | _ _ _ B _ _ _ _ 
5 | _ P _ _ P _ Q P 
4 | _ _ _ _ _ P _ _ 
3 | B _ P _ _ _ _ _ 
2 | P _ _ P P K P P 
1 | R N _ Q _ B N R 
-------------------
  | A B C D E F G H 

Turn of: black
Succesful move
g5h6
8 | R N B _ K _ N R 
7 | P P P P _ P P _ 
6 | _ _ _ B _ _ _ Q 
5 | _ P _ _ P _ _ P 
4 | _ _ _ _ _ P _ _ 
3 | B _ P _ _ _ _ _ 
2 | P _ _ P P K P P 
1 | R N _ Q _ B N R 
-------------------
  | A B C D E F G H 

Turn of: white
Succesful move
a3d6
8 | R N B _ K _ N R 
7 | P P P P _ P P _ 
6 | _ _ _ B _ _ _ Q 
5 | _ P _ _ P _ _ P 
4 | _ _ _ _ _ P _ _ 
3 | _ _ P _ _ _ _ _ 
2 | P _ _ P P K P P 
1 | R N _ Q _ B N R 
-------------------
  | A B C D E F G H 

Turn of: black
Succesful move
e5e4
8 | R N B _ K _ N R 
7 | P P P P _ P P _ 
6 | _ _ _ B _ _ _ Q 
5 | _ P _ _ _ _ _ P 
4 | _ _ _ _ P P _ _ 
3 | _ _ P _ _ _ _ _ 
2 | P _ _ P P K P P 
1 | R N _ Q _ B N R 
-------------------
  | A B C D E F G H 

Turn of: white
Succesful move
d6e5
8 | R N B _ K _ N R 
7 | P P P P _ P P _ 
6 | _ _ _ _ _ _ _ Q 
5 | _ P _ _ B _ _ P 
4 | _ _ _ _ P P _ _ 
3 | _ _ P _ _ _ _ _ 
2 | P _ _ P P K P P 
1 | R N _ Q _ B N R 
-------------------
  | A B C D E F G H 

Turn of: black
Succesful move
b8a6
8 | R _ B _ K _ N R 
7 | P P P P _ P P _ 
6 | N _ _ _ _ _ _ Q 
5 | _ P _ _ B _ _ P 
4 | _ _ _ _ P P _ _ 
3 | _ _ P _ _ _ _ _ 
2 | P _ _ P P K P P 
1 | R N _ Q _ B N R 
-------------------
  | A B C D E F G H 

Turn of: white
Succesful move
g2g4
8 | R _ B _ K _ N R 
7 | P P P P _ P P _ 
6 | N _ _ _ _ _ _ Q 
5 | _ P _ _ B _ _ P 
4 | _ _ _ _ P P P _ 
3 | _ _ P _ _ _ _ _ 
2 | P _ _ P P K _ P 
1 | R N _ Q _ B N R 
-------------------
  | A B C D E F G H 

Turn of: black
Succesful move
h6e6
8 | R _ B _ K _ N R 
7 | P P P P _ P P _ 
6 | N _ _ _ Q _ _ _ 
5 | _ P _ _ B _ _ P 
4 | _ _ _ _ P P P _ 
3 | _ _ P _ _ _ _ _ 
2 | P _ _ P P K _ P 
1 | R N _ Q _ B N R 
-------------------
  | A B C D E F G H 

We are playing as White
Move history:
b2b4
h7h5
f2f4
e7e6
e1f2
f8d6
b4b5
d8g5
c2c3
e6e5
c1a3
g5h6
a3d6
e5e4
d6e5
b8a6
g2g4
h6e6
8 | R _ B _ K _ N R 
7 | P P P P _ P P _ 
6 | N _ _ _ Q _ _ _ 
5 | _ P _ _ B _ _ P 
4 | _ _ _ _ P P P _ 
3 | _ _ P _ _ _ _ _ 
2 | P _ _ P P K _ P 
1 | R N _ Q _ B N R 
-------------------
  | A B C D E F G H 

It is white's turn to play.
AI's move: e5f6
Move written: e5f6
[32;1m[Game] [0mPlayer's error code: 0
[32;1m[Game] [0mChecking move validity...
[32;1m[Board] [0mInitializing board...
[32;1m[Board] [0mLoading history file `championship/lizzie-iii-check-innit-mate/history.csv`...
[32;1m[Board] [0mLoaded 18 move(s).
[32;1m[Board] [0mLoading move file `championship/lizzie-iii-check-innit-mate/move.csv`...
[32;1m[Board] [0mWhite player is playing e5 to f6.
[32;1m[Board] [0m
[32;1m[Board] [0m    a b c d e f g h 
[32;1m[Board] [0m  -------------------
[32;1m[Board] [0m8 ||[30;1mr[0m| |[30;1mb[0m| |[30;1mK[0m| |[30;1mk[0m|[30;1mr[0m|| 8
[32;1m[Board] [0m  -------------------
[32;1m[Board] [0m7 ||[30;1mp[0m|[30;1mp[0m|[30;1mp[0m|[30;1mp[0m| |[30;1mp[0m|[30;1mp[0m|[7;1m [0m|| 7
[32;1m[Board] [0m  -------------------
[32;1m[Board] [0m6 ||[30;1mk[0m| |[7;1m [0m| |[30;1mQ[0m|[0;1mb[0m|[7;1m [0m| || 6
[32;1m[Board] [0m  -------------------
[32;1m[Board] [0m5 || |[0;1mp[0m| |[7;1m [0m| |[7;1m [0m| |[30;1mp[0m|| 5
[32;1m[Board] [0m  -------------------
[32;1m[Board] [0m4 ||[7;1m [0m| |[7;1m [0m| |[30;1mp[0m|[0;1mp[0m|[0;1mp[0m| || 4
[32;1m[Board] [0m  -------------------
[32;1m[Board] [0m3 || |[7;1m [0m|[0;1mp[0m|[7;1m [0m| |[7;1m [0m| |[7;1m [0m|| 3
[32;1m[Board] [0m  -------------------
[32;1m[Board] [0m2 ||[0;1mp[0m| |[7;1m [0m|[0;1mp[0m|[0;1mp[0m|[0;1mK[0m|[7;1m [0m|[0;1mp[0m|| 2
[32;1m[Board] [0m  -------------------
[32;1m[Board] [0m1 ||[0;1mr[0m|[0;1mk[0m| |[0;1mQ[0m| |[0;1mb[0m|[0;1mk[0m|[0;1mr[0m|| 1
[32;1m[Board] [0m  -------------------
[32;1m[Board] [0m    a b c d e f g h
[32;1m[Board] [0m
[32;1m[Referee] [0mThis is the turn of the Black player...
0 - 0 - 0 - 0 0 
0 0 0 0 - 0 0 - 
0 - - - 0 1 - - 
- 1 - - - - - 0 
- - - - 0 1 1 - 
- - 1 - - - - - 
1 - - 1 1 1 - 1 
1 1 - 1 - 1 1 1 
--------
looking for king 0, 0Rook
0
looking for king 0, 1Knight
0
looking for king 0, 3Queen
0
looking for king 0, 5Bishop
0
looking for king 0, 6Knight
0
looking for king 0, 7Rook
0
looking for king 1, 0Pawn
0
looking for king 1, 3Pawn
0
looking for king 1, 4Pawn
0
looking for king 1, 5King
1
looking for king 1, 7Pawn
0
looking for king 2, 2Pawn
0
looking for king 3, 4Pawn
0
looking for king 3, 5Pawn
0
looking for king 3, 6Pawn
0
looking for king 4, 1Pawn
0
looking for king 4, 7Pawn
0
looking for king 5, 0Knight
0
looking for king 5, 4Queen
0
looking for king 5, 5Bishop
0
looking for king 6, 0Pawn
0
looking for king 6, 1Pawn
0
looking for king 6, 2Pawn
0
looking for king 6, 3Pawn
0
looking for king 6, 5Pawn
0
looking for king 6, 6Pawn
0
looking for king 7, 0Rook
0
looking for king 7, 2Bishop
0
looking for king 7, 4King
1
From (3, 4) to (2, 4)
From (4, 7) to (3, 7)
From (4, 7) to (3, 6)
From (5, 0) to (7, 1)
From (5, 0) to (3, 1)
From (5, 0) to (4, 2)
From (5, 4) to (4, 5)
From (5, 4) to (3, 6)
From (5, 4) to (4, 3)
From (5, 4) to (3, 2)
From (5, 4) to (2, 1)
From (5, 4) to (1, 0)
From (5, 4) to (6, 4)
From (5, 4) to (4, 4)
From (5, 4) to (5, 5)
From (5, 4) to (5, 3)
From (5, 4) to (5, 2)
From (5, 4) to (5, 1)
From (6, 1) to (5, 1)
From (6, 2) to (5, 2)
From (6, 2) to (4, 2)
From (6, 3) to (5, 3)
From (6, 3) to (4, 3)
From (6, 6) to (5, 6)
From (6, 6) to (4, 6)
From (6, 6) to (5, 5)
From (7, 0) to (7, 1)
From (7, 4) to (6, 4)
From (7, 4) to (7, 5)
From (7, 4) to (7, 3)
From (7, 6) to (5, 7)
From (7, 6) to (5, 5)
From (7, 6) to (6, 4)
From (7, 7) to (6, 7)
From (7, 7) to (5, 7)
[32;1m[Game] [0mPlayer's error code: 0
[32;1m[Game] [0mChecking move validity...
[32;1m[Board] [0mInitializing board...
[32;1m[Board] [0mLoading history file `championship/lizzie-iii-check-innit-mate/history.csv`...
[32;1m[Board] [0mLoaded 19 move(s).
[32;1m[Board] [0mLoading move file `championship/lizzie-iii-check-innit-mate/move.csv`...
[32;1m[Board] [0mBlack player is playing e6 to g4.
[32;1m[Board] [0m[5;1mBlack Queen is taking White Pawn.[0m
[32;1m[Board] [0m
[32;1m[Board] [0m    a b c d e f g h 
[32;1m[Board] [0m  -------------------
[32;1m[Board] [0m8 ||[30;1mr[0m| |[30;1mb[0m| |[30;1mK[0m| |[30;1mk[0m|[30;1mr[0m|| 8
[32;1m[Board] [0m  -------------------
[32;1m[Board] [0m7 ||[30;1mp[0m|[30;1mp[0m|[30;1mp[0m|[30;1mp[0m| |[30;1mp[0m|[30;1mp[0m|[7;1m [0m|| 7
[32;1m[Board] [0m  -------------------
[32;1m[Board] [0m6 ||[30;1mk[0m| |[7;1m [0m| |[7;1m [0m|[0;1mb[0m|[7;1m [0m| || 6
[32;1m[Board] [0m  -------------------
[32;1m[Board] [0m5 || |[0;1mp[0m| |[7;1m [0m| |[7;1m [0m| |[30;1mp[0m|| 5
[32;1m[Board] [0m  -------------------
[32;1m[Board] [0m4 ||[7;1m [0m| |[7;1m [0m| |[30;1mp[0m|[0;1mp[0m|[30;1mQ[0m| || 4
[...]
[32;1m[Game] [0mChecking move validity...
[32;1m[Board] [0mInitializing board...
[32;1m[Board] [0mLoading history file `championship/lizzie-iii-check-innit-mate/history.csv`...
[32;1m[Board] [0mLoaded 53 move(s).
[32;1m[Board] [0mLoading move file `championship/lizzie-iii-check-innit-mate/move.csv`...
[32;1m[Board] [0mBlack player is playing h7 to h6.
[32;1m[Board] [0m
[32;1m[Board] [0m    a b c d e f g h 
[32;1m[Board] [0m  -------------------
[32;1m[Board] [0m8 ||[30;1mr[0m| |[7;1m [0m| |[7;1m [0m|[30;1mK[0m|[7;1m [0m| || 8
[32;1m[Board] [0m  -------------------
[32;1m[Board] [0m7 ||[30;1mp[0m|[7;1m [0m| |[30;1mp[0m| |[7;1m [0m|[30;1mk[0m|[7;1m [0m|| 7
[32;1m[Board] [0m  -------------------
[32;1m[Board] [0m6 ||[30;1mb[0m| |[30;1mp[0m| |[7;1m [0m| |[30;1mp[0m|[30;1mr[0m|| 6
[32;1m[Board] [0m  -------------------
[32;1m[Board] [0m5 || |[7;1m [0m| |[7;1m [0m| |[0;1mb[0m| |[30;1mp[0m|| 5
[32;1m[Board] [0m  -------------------
[32;1m[Board] [0m4 ||[0;1mp[0m|[30;1mp[0m|[7;1m [0m|[0;1mp[0m|[30;1mp[0m| |[7;1m [0m| || 4
[32;1m[Board] [0m  -------------------
[32;1m[Board] [0m3 || |[7;1m [0m|[0;1mp[0m|[7;1m [0m| |[7;1m [0m|[0;1mQ[0m|[7;1m [0m|| 3
[32;1m[Board] [0m  -------------------
[32;1m[Board] [0m2 ||[7;1m [0m| |[0;1mk[0m| |[0;1mp[0m| |[7;1m [0m|[0;1mp[0m|| 2
[32;1m[Board] [0m  -------------------
[32;1m[Board] [0m1 ||[0;1mr[0m|[7;1m [0m| |[7;1m [0m|[0;1mK[0m|[7;1m [0m|[0;1mk[0m|[0;1mr[0m|| 1
[32;1m[Board] [0m  -------------------
[32;1m[Board] [0m    a b c d e f g h
[32;1m[Board] [0m
[32;1m[Referee] [0mThis is the turn of the White player...
Input file: championship/lizzie-iii-check-innit-mate/history.csv
Output file: championship/lizzie-iii-check-innit-mate/move.csv
Turn of: white
Succesful move
b2b4
8 | R N B Q K B N R 
7 | P P P P P P P P 
6 | _ _ _ _ _ _ _ _ 
5 | _ _ _ _ _ _ _ _ 
4 | _ P _ _ _ _ _ _ 
3 | _ _ _ _ _ _ _ _ 
2 | P _ P P P P P P 
1 | R N B Q K B N R 
-------------------
  | A B C D E F G H 

Turn of: black
Succesful move
h7h5
8 | R N B Q K B N R 
7 | P P P P P P P _ 
6 | _ _ _ _ _ _ _ _ 
5 | _ _ _ _ _ _ _ P 
4 | _ P _ _ _ _ _ _ 
3 | _ _ _ _ _ _ _ _ 
2 | P _ P P P P P P 
1 | R N B Q K B N R 
-------------------
  | A B C D E F G H 

Turn of: white
Succesful move
f2f4
8 | R N B Q K B N R 
7 | P P P P P P P _ 
6 | _ _ _ _ _ _ _ _ 
5 | _ _ _ _ _ _ _ P 
4 | _ P _ _ _ P _ _ 
3 | _ _ _ _ _ _ _ _ 
2 | P _ P P P _ P P 
1 | R N B Q K B N R 
-------------------
  | A B C D E F G H 

Turn of: black
Succesful move
e7e6
8 | R N B Q K B N R 
7 | P P P P _ P P _ 
6 | _ _ _ _ P _ _ _ 
5 | _ _ _ _ _ _ _ P 
4 | _ P _ _ _ P _ _ 
3 | _ _ _ _ _ _ _ _ 
2 | P _ P P P _ P P 
1 | R N B Q K B N R 
-------------------
  | A B C D E F G H 

Turn of: white
Succesful move
e1f2
8 | R N B Q K B N R 
7 | P P P P _ P P _ 
6 | _ _ _ _ P _ _ _ 
5 | _ _ _ _ _ _ _ P 
4 | _ P _ _ _ P _ _ 
3 | _ _ _ _ _ _ _ _ 
2 | P _ P P P K P P 
1 | R N B Q _ B N R 
-------------------
  | A B C D E F G H 

Turn of: black
Succesful move
f8d6
8 | R N B Q K _ N R 
7 | P P P P _ P P _ 
6 | _ _ _ B P _ _ _ 
5 | _ _ _ _ _ _ _ P 
4 | _ P _ _ _ P _ _ 
3 | _ _ _ _ _ _ _ _ 
2 | P _ P P P K P P 
1 | R N B Q _ B N R 
-------------------
  | A B C D E F G H 

Turn of: white
Succesful move
b4b5
8 | R N B Q K _ N R 
7 | P P P P _ P P _ 
6 | _ _ _ B P _ _ _ 
5 | _ P _ _ _ _ _ P 
4 | _ _ _ _ _ P _ _ 
3 | _ _ _ _ _ _ _ _ 
2 | P _ P P P K P P 
1 | R N B Q _ B N R 
-------------------
  | A B C D E F G H 

Turn of: black
Succesful move
d8g5
8 | R N B _ K _ N R 
7 | P P P P _ P P _ 
6 | _ _ _ B P _ _ _ 
5 | _ P _ _ _ _ Q P 
4 | _ _ _ _ _ P _ _ 
3 | _ _ _ _ _ _ _ _ 
2 | P _ P P P K P P 
1 | R N B Q _ B N R 
-------------------
  | A B C D E F G H 

Turn of: white
Succesful move
c2c3
8 | R N B _ K _ N R 
7 | P P P P _ P P _ 
6 | _ _ _ B P _ _ _ 
5 | _ P _ _ _ _ Q P 
4 | _ _ _ _ _ P _ _ 
3 | _ _ P _ _ _ _ _ 
2 | P _ _ P P K P P 
1 | R N B Q _ B N R 
-------------------
  | A B C D E F G H 

Turn of: black
Succesful move
e6e5
8 | R N B _ K _ N R 
7 | P P P P _ P P _ 
6 | _ _ _ B _ _ _ _ 
5 | _ P _ _ P _ Q P 
4 | _ _ _ _ _ P _ _ 
3 | _ _ P _ _ _ _ _ 
2 | P _ _ P P K P P 
1 | R N B Q _ B N R 
-------------------
  | A B C D E F G H 

Turn of: white
Succesful move
c1a3
8 | R N B _ K _ N R 
7 | P P P P _ P P _ 
6 | _ _ _ B _ _ _ _ 
5 | _ P _ _ P _ Q P 
4 | _ _ _ _ _ P _ _ 
3 | B _ P _ _ _ _ _ 
2 | P _ _ P P K P P 
1 | R N _ Q _ B N R 
-------------------
  | A B C D E F G H 

Turn of: black
Succesful move
g5h6
8 | R N B _ K _ N R 
7 | P P P P _ P P _ 
6 | _ _ _ B _ _ _ Q 
5 | _ P _ _ P _ _ P 
4 | _ _ _ _ _ P _ _ 
3 | B _ P _ _ _ _ _ 
2 | P _ _ P P K P P 
1 | R N _ Q _ B N R 
-------------------
  | A B C D E F G H 

Turn of: white
Succesful move
a3d6
8 | R N B _ K _ N R 
7 | P P P P _ P P _ 
6 | _ _ _ B _ _ _ Q 
5 | _ P _ _ P _ _ P 
4 | _ _ _ _ _ P _ _ 
3 | _ _ P _ _ _ _ _ 
2 | P _ _ P P K P P 
1 | R N _ Q _ B N R 
-------------------
  | A B C D E F G H 

Turn of: black
Succesful move
e5e4
8 | R N B _ K _ N R 
7 | P P P P _ P P _ 
6 | _ _ _ B _ _ _ Q 
5 | _ P _ _ _ _ _ P 
4 | _ _ _ _ P P _ _ 
3 | _ _ P _ _ _ _ _ 
2 | P _ _ P P K P P 
1 | R N _ Q _ B N R 
-------------------
  | A B C D E F G H 

Turn of: white
Succesful move
d6e5
8 | R N B _ K _ N R 
7 | P P P P _ P P _ 
6 | _ _ _ _ _ _ _ Q 
5 | _ P _ _ B _ _ P 
4 | _ _ _ _ P P _ _ 
3 | _ _ P _ _ _ _ _ 
2 | P _ _ P P K P P 
1 | R N _ Q _ B N R 
-------------------
  | A B C D E F G H 

Turn of: black
Succesful move
b8a6
8 | R _ B _ K _ N R 
7 | P P P P _ P P _ 
6 | N _ _ _ _ _ _ Q 
5 | _ P _ _ B _ _ P 
4 | _ _ _ _ P P _ _ 
3 | _ _ P _ _ _ _ _ 
2 | P _ _ P P K P P 
1 | R N _ Q _ B N R 
-------------------
  | A B C D E F G H 

Turn of: white
Succesful move
g2g4
8 | R _ B _ K _ N R 
7 | P P P P _ P P _ 
6 | N _ _ _ _ _ _ Q 
5 | _ P _ _ B _ _ P 
4 | _ _ _ _ P P P _ 
3 | _ _ P _ _ _ _ _ 
2 | P _ _ P P K _ P 
1 | R N _ Q _ B N R 
-------------------
  | A B C D E F G H 

Turn of: black
Succesful move
h6e6
8 | R _ B _ K _ N R 
7 | P P P P _ P P _ 
6 | N _ _ _ Q _ _ _ 
5 | _ P _ _ B _ _ P 
4 | _ _ _ _ P P P _ 
3 | _ _ P _ _ _ _ _ 
2 | P _ _ P P K _ P 
1 | R N _ Q _ B N R 
-------------------
  | A B C D E F G H 

Turn of: white
Succesful move
e5f6
8 | R _ B _ K _ N R 
7 | P P P P _ P P _ 
6 | N _ _ _ Q B _ _ 
5 | _ P _ _ _ _ _ P 
4 | _ _ _ _ P P P _ 
3 | _ _ P _ _ _ _ _ 
2 | P _ _ P P K _ P 
1 | R N _ Q _ B N R 
-------------------
  | A B C D E F G H 

Turn of: black
Succesful move
e6g4
8 | R _ B _ K _ N R 
7 | P P P P _ P P _ 
6 | N _ _ _ _ B _ _ 
5 | _ P _ _ _ _ _ P 
4 | _ _ _ _ P P Q _ 
3 | _ _ P _ _ _ _ _ 
2 | P _ _ P P K _ P 
1 | R N _ Q _ B N R 
-------------------
  | A B C D E F G H 

Turn of: white
Succesful move
b5a6
8 | R _ B _ K _ N R 
7 | P P P P _ P P _ 
6 | P _ _ _ _ B _ _ 
5 | _ _ _ _ _ _ _ P 
4 | _ _ _ _ P P Q _ 
3 | _ _ P _ _ _ _ _ 
2 | P _ _ P P K _ P 
1 | R N _ Q _ B N R 
-------------------
  | A B C D E F G H 

Turn of: black
Succesful move
h8h6
8 | R _ B _ K _ N _ 
7 | P P P P _ P P _ 
6 | P _ _ _ _ B _ R 
5 | _ _ _ _ _ _ _ P 
4 | _ _ _ _ P P Q _ 
3 | _ _ P _ _ _ _ _ 
2 | P _ _ P P K _ P 
1 | R N _ Q _ B N R 
-------------------
  | A B C D E F G H 

Turn of: white
Succesful move
f2e3
8 | R _ B _ K _ N _ 
7 | P P P P _ P P _ 
6 | P _ _ _ _ B _ R 
5 | _ _ _ _ _ _ _ P 
4 | _ _ _ _ P P Q _ 
3 | _ _ P _ K _ _ _ 
2 | P _ _ P P _ _ P 
1 | R N _ Q _ B N R 
-------------------
  | A B C D E F G H 

Turn of: black
Succesful move
g7g6
8 | R _ B _ K _ N _ 
7 | P P P P _ P _ _ 
6 | P _ _ _ _ B P R 
5 | _ _ _ _ _ _ _ P 
4 | _ _ _ _ P P Q _ 
3 | _ _ P _ K _ _ _ 
2 | P _ _ P P _ _ P 
1 | R N _ Q _ B N R 
-------------------
  | A B C D E F G H 

Turn of: white
Succesful move
f1h3
8 | R _ B _ K _ N _ 
7 | P P P P _ P _ _ 
6 | P _ _ _ _ B P R 
5 | _ _ _ _ _ _ _ P 
4 | _ _ _ _ P P Q _ 
3 | _ _ P _ K _ _ B 
2 | P _ _ P P _ _ P 
1 | R N _ Q _ _ N R 
-------------------
  | A B C D E F G H 

Turn of: black
Succesful move
b7b6
8 | R _ B _ K _ N _ 
7 | P _ P P _ P _ _ 
6 | P P _ _ _ B P R 
5 | _ _ _ _ _ _ _ P 
4 | _ _ _ _ P P Q _ 
3 | _ _ P _ K _ _ B 
2 | P _ _ P P _ _ P 
1 | R N _ Q _ _ N R 
-------------------
  | A B C D E F G H 

Turn of: white
Succesful move
e3f2
8 | R _ B _ K _ N _ 
7 | P _ P P _ P _ _ 
6 | P P _ _ _ B P R 
5 | _ _ _ _ _ _ _ P 
4 | _ _ _ _ P P Q _ 
3 | _ _ P _ _ _ _ B 
2 | P _ _ P P K _ P 
1 | R N _ Q _ _ N R 
-------------------
  | A B C D E F G H 

Turn of: black
Succesful move
g4h4
8 | R _ B _ K _ N _ 
7 | P _ P P _ P _ _ 
6 | P P _ _ _ B P R 
5 | _ _ _ _ _ _ _ P 
4 | _ _ _ _ P P _ Q 
3 | _ _ P _ _ _ _ B 
2 | P _ _ P P K _ P 
1 | R N _ Q _ _ N R 
-------------------
  | A B C D E F G H 

Turn of: white
Succesful move
f2f1
8 | R _ B _ K _ N _ 
7 | P _ P P _ P _ _ 
6 | P P _ _ _ B P R 
5 | _ _ _ _ _ _ _ P 
4 | _ _ _ _ P P _ Q 
3 | _ _ P _ _ _ _ B 
2 | P _ _ P P _ _ P 
1 | R N _ Q _ K N R 
-------------------
  | A B C D E F G H 

Turn of: black
Succesful move
h4e1
8 | R _ B _ K _ N _ 
7 | P _ P P _ P _ _ 
6 | P P _ _ _ B P R 
5 | _ _ _ _ _ _ _ P 
4 | _ _ _ _ P P _ _ 
3 | _ _ P _ _ _ _ B 
2 | P _ _ P P _ _ P 
1 | R N _ Q Q K N R 
-------------------
  | A B C D E F G H 

Turn of: white
Succesful move
f1e1
8 | R _ B _ K _ N _ 
7 | P _ P P _ P _ _ 
6 | P P _ _ _ B P R 
5 | _ _ _ _ _ _ _ P 
4 | _ _ _ _ P P _ _ 
3 | _ _ P _ _ _ _ B 
2 | P _ _ P P _ _ P 
1 | R N _ Q K _ N R 
-------------------
  | A B C D E F G H 

Turn of: black
Succesful move
h6h7
8 | R _ B _ K _ N _ 
7 | P _ P P _ P _ R 
6 | P P _ _ _ B P _ 
5 | _ _ _ _ _ _ _ P 
4 | _ _ _ _ P P _ _ 
3 | _ _ P _ _ _ _ B 
2 | P _ _ P P _ _ P 
1 | R N _ Q K _ N R 
-------------------
  | A B C D E F G H 

Turn of: white
Succesful move
f4f5
8 | R _ B _ K _ N _ 
7 | P _ P P _ P _ R 
6 | P P _ _ _ B P _ 
5 | _ _ _ _ _ P _ P 
4 | _ _ _ _ P _ _ _ 
3 | _ _ P _ _ _ _ B 
2 | P _ _ P P _ _ P 
1 | R N _ Q K _ N R 
-------------------
  | A B C D E F G H 

Turn of: black
Succesful move
g8f6
8 | R _ B _ K _ _ _ 
7 | P _ P P _ P _ R 
6 | P P _ _ _ N P _ 
5 | _ _ _ _ _ P _ P 
4 | _ _ _ _ P _ _ _ 
3 | _ _ P _ _ _ _ B 
2 | P _ _ P P _ _ P 
1 | R N _ Q K _ N R 
-------------------
  | A B C D E F G H 

Turn of: white
Succesful move
d2d4
8 | R _ B _ K _ _ _ 
7 | P _ P P _ P _ R 
6 | P P _ _ _ N P _ 
5 | _ _ _ _ _ P _ P 
4 | _ _ _ P P _ _ _ 
3 | _ _ P _ _ _ _ B 
2 | P _ _ _ P _ _ P 
1 | R N _ Q K _ N R 
-------------------
  | A B C D E F G H 

Turn of: black
Succesful move
e8f8
8 | R _ B _ _ K _ _ 
7 | P _ P P _ P _ R 
6 | P P _ _ _ N P _ 
5 | _ _ _ _ _ P _ P 
4 | _ _ _ P P _ _ _ 
3 | _ _ P _ _ _ _ B 
2 | P _ _ _ P _ _ P 
1 | R N _ Q K _ N R 
-------------------
  | A B C D E F G H 

Turn of: white
Succesful move
f5g6
8 | R _ B _ _ K _ _ 
7 | P _ P P _ P _ R 
6 | P P _ _ _ N P _ 
5 | _ _ _ _ _ _ _ P 
4 | _ _ _ P P _ _ _ 
3 | _ _ P _ _ _ _ B 
2 | P _ _ _ P _ _ P 
1 | R N _ Q K _ N R 
-------------------
  | A B C D E F G H 

Turn of: black
Succesful move
f6e8
8 | R _ B _ N K _ _ 
7 | P _ P P _ P _ R 
6 | P P _ _ _ _ P _ 
5 | _ _ _ _ _ _ _ P 
4 | _ _ _ P P _ _ _ 
3 | _ _ P _ _ _ _ B 
2 | P _ _ _ P _ _ P 
1 | R N _ Q K _ N R 
-------------------
  | A B C D E F G H 

Turn of: white
Succesful move
d1c1
8 | R _ B _ N K _ _ 
7 | P _ P P _ P _ R 
6 | P P _ _ _ _ P _ 
5 | _ _ _ _ _ _ _ P 
4 | _ _ _ P P _ _ _ 
3 | _ _ P _ _ _ _ B 
2 | P _ _ _ P _ _ P 
1 | R N Q _ K _ N R 
-------------------
  | A B C D E F G H 

Turn of: black
Succesful move
e8g7
8 | R _ B _ _ K _ _ 
7 | P _ P P _ P N R 
6 | P P _ _ _ _ P _ 
5 | _ _ _ _ _ _ _ P 
4 | _ _ _ P P _ _ _ 
3 | _ _ P _ _ _ _ B 
2 | P _ _ _ P _ _ P 
1 | R N Q _ K _ N R 
-------------------
  | A B C D E F G H 

Turn of: white
Succesful move
c1g5
8 | R _ B _ _ K _ _ 
7 | P _ P P _ P N R 
6 | P P _ _ _ _ P _ 
5 | _ _ _ _ _ _ Q P 
4 | _ _ _ P P _ _ _ 
3 | _ _ P _ _ _ _ B 
2 | P _ _ _ P _ _ P 
1 | R N _ _ K _ N R 
-------------------
  | A B C D E F G H 

Turn of: black
Succesful move
b6b5
8 | R _ B _ _ K _ _ 
7 | P _ P P _ P N R 
6 | P _ _ _ _ _ P _ 
5 | _ P _ _ _ _ Q P 
4 | _ _ _ P P _ _ _ 
3 | _ _ P _ _ _ _ B 
2 | P _ _ _ P _ _ P 
1 | R N _ _ K _ N R 
-------------------
  | A B C D E F G H 

Turn of: white
Succesful move
h3f5
8 | R _ B _ _ K _ _ 
7 | P _ P P _ P N R 
6 | P _ _ _ _ _ P _ 
5 | _ P _ _ _ B Q P 
4 | _ _ _ P P _ _ _ 
3 | _ _ P _ _ _ _ _ 
2 | P _ _ _ P _ _ P 
1 | R N _ _ K _ N R 
-------------------
  | A B C D E F G H 

Turn of: black
Succesful move
f7g6
8 | R _ B _ _ K _ _ 
7 | P _ P P _ _ N R 
6 | P _ _ _ _ _ P _ 
5 | _ P _ _ _ B Q P 
4 | _ _ _ P P _ _ _ 
3 | _ _ P _ _ _ _ _ 
2 | P _ _ _ P _ _ P 
1 | R N _ _ K _ N R 
-------------------
  | A B C D E F G H 

Turn of: white
Succesful move
a2a4
8 | R _ B _ _ K _ _ 
7 | P _ P P _ _ N R 
6 | P _ _ _ _ _ P _ 
5 | _ P _ _ _ B Q P 
4 | P _ _ P P _ _ _ 
3 | _ _ P _ _ _ _ _ 
2 | _ _ _ _ P _ _ P 
1 | R N _ _ K _ N R 
-------------------
  | A B C D E F G H 

Turn of: black
Succesful move
c7c6
8 | R _ B _ _ K _ _ 
7 | P _ _ P _ _ N R 
6 | P _ P _ _ _ P _ 
5 | _ P _ _ _ B Q P 
4 | P _ _ P P _ _ _ 
3 | _ _ P _ _ _ _ _ 
2 | _ _ _ _ P _ _ P 
1 | R N _ _ K _ N R 
-------------------
  | A B C D E F G H 

Turn of: white
Succesful move
b1a3
8 | R _ B _ _ K _ _ 
7 | P _ _ P _ _ N R 
6 | P _ P _ _ _ P _ 
5 | _ P _ _ _ B Q P 
4 | P _ _ P P _ _ _ 
3 | N _ P _ _ _ _ _ 
2 | _ _ _ _ P _ _ P 
1 | R _ _ _ K _ N R 
-------------------
  | A B C D E F G H 

Turn of: black
Succesful move
b5b4
8 | R _ B _ _ K _ _ 
7 | P _ _ P _ _ N R 
6 | P _ P _ _ _ P _ 
5 | _ _ _ _ _ B Q P 
4 | P P _ P P _ _ _ 
3 | N _ P _ _ _ _ _ 
2 | _ _ _ _ P _ _ P 
1 | R _ _ _ K _ N R 
-------------------
  | A B C D E F G H 

Turn of: white
Succesful move
g5g2
8 | R _ B _ _ K _ _ 
7 | P _ _ P _ _ N R 
6 | P _ P _ _ _ P _ 
5 | _ _ _ _ _ B _ P 
4 | P P _ P P _ _ _ 
3 | N _ P _ _ _ _ _ 
2 | _ _ _ _ P _ Q P 
1 | R _ _ _ K _ N R 
-------------------
  | A B C D E F G H 

Turn of: black
Succesful move
c8b7
8 | R _ _ _ _ K _ _ 
7 | P B _ P _ _ N R 
6 | P _ P _ _ _ P _ 
5 | _ _ _ _ _ B _ P 
4 | P P _ P P _ _ _ 
3 | N _ P _ _ _ _ _ 
2 | _ _ _ _ P _ Q P 
1 | R _ _ _ K _ N R 
-------------------
  | A B C D E F G H 

Turn of: white
Succesful move
g2g3
8 | R _ _ _ _ K _ _ 
7 | P B _ P _ _ N R 
6 | P _ P _ _ _ P _ 
5 | _ _ _ _ _ B _ P 
4 | P P _ P P _ _ _ 
3 | N _ P _ _ _ Q _ 
2 | _ _ _ _ P _ _ P 
1 | R _ _ _ K _ N R 
-------------------
  | A B C D E F G H 

Turn of: black
Succesful move
b7a6
8 | R _ _ _ _ K _ _ 
7 | P _ _ P _ _ N R 
6 | B _ P _ _ _ P _ 
5 | _ _ _ _ _ B _ P 
4 | P P _ P P _ _ _ 
3 | N _ P _ _ _ Q _ 
2 | _ _ _ _ P _ _ P 
1 | R _ _ _ K _ N R 
-------------------
  | A B C D E F G H 

Turn of: white
Succesful move
a3c2
8 | R _ _ _ _ K _ _ 
7 | P _ _ P _ _ N R 
6 | B _ P _ _ _ P _ 
5 | _ _ _ _ _ B _ P 
4 | P P _ P P _ _ _ 
3 | _ _ P _ _ _ Q _ 
2 | _ _ N _ P _ _ P 
1 | R _ _ _ K _ N R 
-------------------
  | A B C D E F G H 

Turn of: black
Succesful move
h7h6
8 | R _ _ _ _ K _ _ 
7 | P _ _ P _ _ N _ 
6 | B _ P _ _ _ P R 
5 | _ _ _ _ _ B _ P 
4 | P P _ P P _ _ _ 
3 | _ _ P _ _ _ Q _ 
2 | _ _ N _ P _ _ P 
1 | R _ _ _ K _ N R 
-------------------
  | A B C D E F G H 

We are playing as White
Move history:
b2b4
h7h5
f2f4
e7e6
e1f2
f8d6
b4b5
d8g5
c2c3
e6e5
c1a3
g5h6
a3d6
e5e4
d6e5
b8a6
g2g4
h6e6
e5f6
e6g4
b5a6
h8h6
f2e3
g7g6
f1h3
b7b6
e3f2
g4h4
f2f1
h4e1
f1e1
h6h7
f4f5
g8f6
d2d4
e8f8
f5g6
f6e8
d1c1
e8g7
c1g5
b6b5
h3f5
f7g6
a2a4
c7c6
b1a3
b5b4
g5g2
c8b7
g2g3
b7a6
a3c2
h7h6
8 | R _ _ _ _ K _ _ 
7 | P _ _ P _ _ N _ 
6 | B _ P _ _ _ P R 
5 | _ _ _ _ _ B _ P 
4 | P P _ P P _ _ _ 
3 | _ _ P _ _ _ Q _ 
2 | _ _ N _ P _ _ P 
1 | R _ _ _ K _ N R 
-------------------
  | A B C D E F G H 

It is white's turn to play.
AI's move: g3d6
Move written: g3d6
[32;1m[Game] [0mPlayer's error code: 0
[32;1m[Game] [0mChecking move validity...
[32;1m[Board] [0mInitializing board...
[32;1m[Board] [0mLoading history file `championship/lizzie-iii-check-innit-mate/history.csv`...
[32;1m[Board] [0mLoaded 54 move(s).
[32;1m[Board] [0mLoading move file `championship/lizzie-iii-check-innit-mate/move.csv`...
[32;1m[Board] [0mWhite player is playing g3 to d6.
[32;1m[Board] [0m
[32;1m[Board] [0m    a b c d e f g h 
[32;1m[Board] [0m  -------------------
[32;1m[Board] [0m8 ||[30;1mr[0m| |[7;1m [0m| |[7;1m [0m|[30;1mK[0m|[7;1m [0m| || 8
[32;1m[Board] [0m  -------------------
[32;1m[Board] [0m7 ||[30;1mp[0m|[7;1m [0m| |[30;1mp[0m| |[7;1m [0m|[30;1mk[0m|[7;1m [0m|| 7
[32;1m[Board] [0m  -------------------
[32;1m[Board] [0m6 ||[30;1mb[0m| |[30;1mp[0m|[0;1mQ[0m|[7;1m [0m| |[30;1mp[0m|[30;1mr[0m|| 6
[32;1m[Board] [0m  -------------------
[32;1m[Board] [0m5 || |[7;1m [0m| |[7;1m [0m| |[0;1mb[0m| |[30;1mp[0m|| 5
[32;1m[Board] [0m  -------------------
[32;1m[Board] [0m4 ||[0;1mp[0m|[30;1mp[0m|[7;1m [0m|[0;1mp[0m|[30;1mp[0m| |[7;1m [0m| || 4
[32;1m[Board] [0m  -------------------
[32;1m[Board] [0m3 || |[7;1m [0m|[0;1mp[0m|[7;1m [0m| |[7;1m [0m| |[7;1m [0m|| 3
[32;1m[Board] [0m  -------------------
[32;1m[Board] [0m2 ||[7;1m [0m| |[0;1mk[0m| |[0;1mp[0m| |[7;1m [0m|[0;1mp[0m|| 2
[32;1m[Board] [0m  -------------------
[32;1m[Board] [0m1 ||[0;1mr[0m|[7;1m [0m| |[7;1m [0m|[0;1mK[0m|[7;1m [0m|[0;1mk[0m|[0;1mr[0m|| 1
[32;1m[Board] [0m  -------------------
[32;1m[Board] [0m    a b c d e f g h
[32;1m[Board] [0m
[32;1m[Referee] [0mThis is the turn of the Black player...
[32;1m[Board] [0m[33;1m[WARNING][0m [5;1mBlack King in check![0m
[32;1m[Board] [0m[33;1m[WARNING][0m    Threatened by White Queen (d6)
0 - - - - 0 - - 
0 - - 0 - - 0 - 
0 - 0 1 - - 0 0 
- - - - - 1 - 0 
1 0 - 1 0 - - - 
- - 1 - - - - - 
- - 1 - 1 - - 1 
1 - - - 1 - 1 1 
--------
looking for king 0, 0Rook
0
looking for king 0, 4King
1
looking for king 0, 6Knight
0
looking for king 0, 7Rook
0
looking for king 1, 2Knight
0
looking for king 1, 4Pawn
0
looking for king 1, 7Pawn
0
looking for king 2, 2Pawn
0
looking for king 3, 0Pawn
0
looking for king 3, 1Pawn
0
looking for king 3, 3Pawn
0
looking for king 3, 4Pawn
0
looking for king 4, 5Bishop
0
looking for king 4, 7Pawn
0
looking for king 5, 0Bishop
0
looking for king 5, 2Pawn
0
looking for king 5, 3Queen
0
looking for king 5, 6Pawn
0
looking for king 5, 7Rook
0
looking for king 6, 0Pawn
0
looking for king 6, 3Pawn
0
looking for king 6, 6Knight
0
looking for king 7, 0Rook
0
looking for king 7, 5King
1
looking for king 0, 0Rook
0
looking for king 0, 4King
1
looking for king 0, 6Knight
0
looking for king 0, 7Rook
0
looking for king 1, 2Knight
0
looking for king 1, 4Pawn
0
looking for king 1, 7Pawn
0
looking for king 2, 1Pawn
0
looking for king 2, 2Pawn
0
looking for king 3, 0Pawn
0
looking for king 3, 3Pawn
0
looking for king 3, 4Pawn
0
looking for king 4, 5Bishop
0
looking for king 4, 7Pawn
0
looking for king 5, 0Bishop
0
looking for king 5, 2Pawn
0
looking for king 5, 3Queen
0
looking for king 5, 6Pawn
0
looking for king 5, 7Rook
0
looking for king 6, 0Pawn
0
looking for king 6, 3Pawn
0
looking for king 6, 6Knight
0
looking for king 7, 0Rook
0
looking for king 7, 5King
1
looking for king 0, 0Unknown
0
looking for king 0, 4Unknown
0
looking for king 0, 6Unknown
0
looking for king 0, 7Unknown
0
looking for king 1, 2Unknown
0
looking for king 1, 4Pawn
0
looking for king 1, 7Pawn
0
looking for king 2, 2Pawn
0
looking for king 3, 0Pawn
0
looking for king 3, 3Pawn
0
looking for king 3, 4Pawn
0
looking for king 4, 5Bishop
0
looking for king 4, 7Pawn
0
looking for king 5, 0Bishop
0
looking for king 5, 2Pawn
0
looking for king 5, 3Queen
0
looking for king 5, 6Pawn
0
looking for king 5, 7Rook
0
looking for king 6, 0Pawn
0
looking for king 6, 3Pawn
0
looking for king 6, 6Knight
0
looking for king 7, 0Rook
0
looking for king 7, 5King
1
[32;1m[Game] [0mPlayer's error code: 11
[32;1m[Game] [0m[31;1m[ERROR][0m The program `/home/julien/Pro/git/teaching/x/2024/check-innit-mate/build/check-innit-mate' has crashed :(
[32;1m[Game] [0mBlack player has lost on illegal move.
