[32;1m[Board] [0mInitializing board...
[32;1m[Board] [0m
[32;1m[Board] [0m    a b c d e f g h 
[32;1m[Board] [0m  -------------------
[32;1m[Board] [0m8 ||[30;1mr[0m|[30;1mk[0m|[30;1mb[0m|[30;1mQ[0m|[30;1mK[0m|[30;1mb[0m|[30;1mk[0m|[30;1mr[0m|| 8
[32;1m[Board] [0m  -------------------
[32;1m[Board] [0m7 ||[30;1mp[0m|[30;1mp[0m|[30;1mp[0m|[30;1mp[0m|[30;1mp[0m|[30;1mp[0m|[30;1mp[0m|[30;1mp[0m|| 7
[32;1m[Board] [0m  -------------------
[32;1m[Board] [0m6 ||[7;1m [0m| |[7;1m [0m| |[7;1m [0m| |[7;1m [0m| || 6
[32;1m[Board] [0m  -------------------
[32;1m[Board] [0m5 || |[7;1m [0m| |[7;1m [0m| |[7;1m [0m| |[7;1m [0m|| 5
[32;1m[Board] [0m  -------------------
[32;1m[Board] [0m4 ||[7;1m [0m| |[7;1m [0m| |[7;1m [0m| |[7;1m [0m| || 4
[32;1m[Board] [0m  -------------------
[32;1m[Board] [0m3 || |[7;1m [0m| |[7;1m [0m| |[7;1m [0m| |[7;1m [0m|| 3
[32;1m[Board] [0m  -------------------
[32;1m[Board] [0m2 ||[0;1mp[0m|[0;1mp[0m|[0;1mp[0m|[0;1mp[0m|[0;1mp[0m|[0;1mp[0m|[0;1mp[0m|[0;1mp[0m|| 2
[32;1m[Board] [0m  -------------------
[32;1m[Board] [0m1 ||[0;1mr[0m|[0;1mk[0m|[0;1mb[0m|[0;1mQ[0m|[0;1mK[0m|[0;1mb[0m|[0;1mk[0m|[0;1mr[0m|| 1
[32;1m[Board] [0m  -------------------
[32;1m[Board] [0m    a b c d e f g h
[32;1m[Board] [0m
[32;1m[Referee] [0mThis is the turn of the White player...
Input file: championship/lizzie-iii-bbd/history.csv
Output file: championship/lizzie-iii-bbd/move.csv
We are playing as White
Move history:
8 | R N B Q K B N R 
7 | P P P P P P P P 
6 | _ _ _ _ _ _ _ _ 
5 | _ _ _ _ _ _ _ _ 
4 | _ _ _ _ _ _ _ _ 
3 | _ _ _ _ _ _ _ _ 
2 | P P P P P P P P 
1 | R N B Q K B N R 
-------------------
  | A B C D E F G H 

It is white's turn to play.
AI's move: c2c3
Move written: c2c3
[32;1m[Game] [0mPlayer's error code: 0
[32;1m[Game] [0mChecking move validity...
[32;1m[Board] [0mInitializing board...
[32;1m[Board] [0mLoading history file `championship/lizzie-iii-bbd/history.csv`...
[32;1m[Board] [0mLoaded 0 move(s).
[32;1m[Board] [0mLoading move file `championship/lizzie-iii-bbd/move.csv`...
[32;1m[Board] [0mWhite player is playing c2 to c3.
[32;1m[Board] [0m
[32;1m[Board] [0m    a b c d e f g h 
[32;1m[Board] [0m  -------------------
[32;1m[Board] [0m8 ||[30;1mr[0m|[30;1mk[0m|[30;1mb[0m|[30;1mQ[0m|[30;1mK[0m|[30;1mb[0m|[30;1mk[0m|[30;1mr[0m|| 8
[32;1m[Board] [0m  -------------------
[32;1m[Board] [0m7 ||[30;1mp[0m|[30;1mp[0m|[30;1mp[0m|[30;1mp[0m|[30;1mp[0m|[30;1mp[0m|[30;1mp[0m|[30;1mp[0m|| 7
[32;1m[Board] [0m  -------------------
[32;1m[Board] [0m6 ||[7;1m [0m| |[7;1m [0m| |[7;1m [0m| |[7;1m [0m| || 6
[32;1m[Board] [0m  -------------------
[32;1m[Board] [0m5 || |[7;1m [0m| |[7;1m [0m| |[7;1m [0m| |[7;1m [0m|| 5
[32;1m[Board] [0m  -------------------
[32;1m[Board] [0m4 ||[7;1m [0m| |[7;1m [0m| |[7;1m [0m| |[7;1m [0m| || 4
[32;1m[Board] [0m  -------------------
[32;1m[Board] [0m3 || |[7;1m [0m|[0;1mp[0m|[7;1m [0m| |[7;1m [0m| |[7;1m [0m|| 3
[32;1m[Board] [0m  -------------------
[32;1m[Board] [0m2 ||[0;1mp[0m|[0;1mp[0m|[7;1m [0m|[0;1mp[0m|[0;1mp[0m|[0;1mp[0m|[0;1mp[0m|[0;1mp[0m|| 2
[32;1m[Board] [0m  -------------------
[32;1m[Board] [0m1 ||[0;1mr[0m|[0;1mk[0m|[0;1mb[0m|[0;1mQ[0m|[0;1mK[0m|[0;1mb[0m|[0;1mk[0m|[0;1mr[0m|| 1
[32;1m[Board] [0m  -------------------
[32;1m[Board] [0m    a b c d e f g h
[32;1m[Board] [0m
[32;1m[Referee] [0mThis is the turn of the Black player...
info score 179 depth 1 nodes 21 time 0
info score 35 depth 2 nodes 411 time 7
info score 161 depth 3 nodes 6902 time 68
info score 119 depth 4 nodes 52571 time 384
info score 129 depth 5 nodes 693687 time 4927
info score 53 depth 6 nodes 5216173 time 31926
bestmove b8c6
[32;1m[Game] [0mPlayer's error code: 0
[32;1m[Game] [0mChecking move validity...
[32;1m[Board] [0mInitializing board...
[32;1m[Board] [0mLoading history file `championship/lizzie-iii-bbd/history.csv`...
[32;1m[Board] [0mLoaded 1 move(s).
[32;1m[Board] [0mLoading move file `championship/lizzie-iii-bbd/move.csv`...
[32;1m[Board] [0mBlack player is playing b8 to c6.
[32;1m[Board] [0m
[32;1m[Board] [0m    a b c d e f g h 
[32;1m[Board] [0m  -------------------
[32;1m[Board] [0m8 ||[30;1mr[0m| |[30;1mb[0m|[30;1mQ[0m|[30;1mK[0m|[30;1mb[0m|[30;1mk[0m|[30;1mr[0m|| 8
[32;1m[Board] [0m  -------------------
[32;1m[Board] [0m7 ||[30;1mp[0m|[30;1mp[0m|[30;1mp[0m|[30;1mp[0m|[30;1mp[0m|[30;1mp[0m|[30;1mp[0m|[30;1mp[0m|| 7
[32;1m[Board] [0m  -------------------
[32;1m[Board] [0m6 ||[7;1m [0m| |[30;1mk[0m| |[7;1m [0m| |[7;1m [0m| || 6
[32;1m[Board] [0m  -------------------
[32;1m[Board] [0m5 || |[7;1m [0m| |[7;1m [0m| |[7;1m [0m| |[7;1m [0m|| 5
[32;1m[Board] [0m  -------------------
[32;1m[Board] [0m4 ||[7;1m [0m| |[7;1m [0m| |[7;1m [0m| |[7;1m [0m| || 4
[32;1m[Board] [0m  -------------------
[32;1m[Board] [0m3 || |[7;1m [0m|[0;1mp[0m|[7;1m [0m| |[7;1m [0m| |[7;1m [0m|| 3
[32;1m[Board] [0m  -------------------
[32;1m[Board] [0m2 ||[0;1mp[0m|[0;1mp[0m|[7;1m [0m|[0;1mp[0m|[0;1mp[0m|[0;1mp[0m|[0;1mp[0m|[0;1mp[0m|| 2
[32;1m[Board] [0m  -------------------
[32;1m[Board] [0m1 ||[0;1mr[0m|[0;1mk[0m|[0;1mb[0m|[0;1mQ[0m|[0;1mK[0m|[0;1mb[0m|[0;1mk[0m|[0;1mr[0m|| 1
[32;1m[Board] [0m  -------------------
[32;1m[Board] [0m    a b c d e f g h
[32;1m[Board] [0m
[32;1m[Referee] [0mThis is the turn of the White player...
Input file: championship/lizzie-iii-bbd/history.csv
Output file: championship/lizzie-iii-bbd/move.csv
Turn of: white
Succesful move
c2c3
8 | R N B Q K B N R 
7 | P P P P P P P P 
6 | _ _ _ _ _ _ _ _ 
5 | _ _ _ _ _ _ _ _ 
4 | _ _ _ _ _ _ _ _ 
3 | _ _ P _ _ _ _ _ 
2 | P P _ P P P P P 
1 | R N B Q K B N R 
-------------------
  | A B C D E F G H 

Turn of: black
Succesful move
b8c6
8 | R _ B Q K B N R 
7 | P P P P P P P P 
6 | _ _ N _ _ _ _ _ 
5 | _ _ _ _ _ _ _ _ 
4 | _ _ _ _ _ _ _ _ 
3 | _ _ P _ _ _ _ _ 
2 | P P _ P P P P P 
1 | R N B Q K B N R 
-------------------
  | A B C D E F G H 

We are playing as White
Move history:
c2c3
b8c6
8 | R _ B Q K B N R 
7 | P P P P P P P P 
6 | _ _ N _ _ _ _ _ 
5 | _ _ _ _ _ _ _ _ 
4 | _ _ _ _ _ _ _ _ 
3 | _ _ P _ _ _ _ _ 
2 | P P _ P P P P P 
1 | R N B Q K B N R 
-------------------
  | A B C D E F G H 

It is white's turn to play.
AI's move: e2e3
Move written: e2e3
[32;1m[Game] [0mPlayer's error code: 0
[32;1m[Game] [0mChecking move validity...
[32;1m[Board] [0mInitializing board...
[32;1m[Board] [0mLoading history file `championship/lizzie-iii-bbd/history.csv`...
[32;1m[Board] [0mLoaded 2 move(s).
[32;1m[Board] [0mLoading move file `championship/lizzie-iii-bbd/move.csv`...
[32;1m[Board] [0mWhite player is playing e2 to e3.
[32;1m[Board] [0m
[32;1m[Board] [0m    a b c d e f g h 
[32;1m[Board] [0m  -------------------
[32;1m[Board] [0m8 ||[30;1mr[0m| |[30;1mb[0m|[30;1mQ[0m|[30;1mK[0m|[30;1mb[0m|[30;1mk[0m|[30;1mr[0m|| 8
[32;1m[Board] [0m  -------------------
[32;1m[Board] [0m7 ||[30;1mp[0m|[30;1mp[0m|[30;1mp[0m|[30;1mp[0m|[30;1mp[0m|[30;1mp[0m|[30;1mp[0m|[30;1mp[0m|| 7
[32;1m[Board] [0m  -------------------
[32;1m[Board] [0m6 ||[7;1m [0m| |[30;1mk[0m| |[7;1m [0m| |[7;1m [0m| || 6
[32;1m[Board] [0m  -------------------
[32;1m[Board] [0m5 || |[7;1m [0m| |[7;1m [0m| |[7;1m [0m| |[7;1m [0m|| 5
[32;1m[Board] [0m  -------------------
[32;1m[Board] [0m4 ||[7;1m [0m| |[7;1m [0m| |[7;1m [0m| |[7;1m [0m| || 4
[32;1m[Board] [0m  -------------------
[32;1m[Board] [0m3 || |[7;1m [0m|[0;1mp[0m|[7;1m [0m|[0;1mp[0m|[7;1m [0m| |[7;1m [0m|| 3
[32;1m[Board] [0m  -------------------
[32;1m[Board] [0m2 ||[0;1mp[0m|[0;1mp[0m|[7;1m [0m|[0;1mp[0m|[7;1m [0m|[0;1mp[0m|[0;1mp[0m|[0;1mp[0m|| 2
[32;1m[Board] [0m  -------------------
[32;1m[Board] [0m1 ||[0;1mr[0m|[0;1mk[0m|[0;1mb[0m|[0;1mQ[0m|[0;1mK[0m|[0;1mb[0m|[0;1mk[0m|[0;1mr[0m|| 1
[32;1m[Board] [0m  -------------------
[32;1m[Board] [0m    a b c d e f g h
[32;1m[Board] [0m
[32;1m[Referee] [0mThis is the turn of the Black player...
info score 308 depth 1 nodes 25 time 0
info score 164 depth 2 nodes 396 time 2
info score 174 depth 3 nodes 6116 time 31
info score 92 depth 4 nodes 63203 time 357
info score 158 depth 5 nodes 694611 time 4607
info score 83 depth 6 nodes 6467244 time 43970
bestmove g8f6
[32;1m[Game] [0mPlayer's error code: 0
[32;1m[Game] [0mChecking move validity...
[32;1m[Board] [0mInitializing board...
[32;1m[Board] [0mLoading history file `championship/lizzie-iii-bbd/history.csv`...
[32;1m[Board] [0mLoaded 3 move(s).
[32;1m[Board] [0mLoading move file `championship/lizzie-iii-bbd/move.csv`...
[32;1m[Board] [0mBlack player is playing g8 to f6.
[32;1m[Board] [0m
[32;1m[Board] [0m    a b c d e f g h 
[32;1m[Board] [0m  -------------------
[32;1m[Board] [0m8 ||[30;1mr[0m| |[30;1mb[0m|[30;1mQ[0m|[30;1mK[0m|[30;1mb[0m|[7;1m [0m|[30;1mr[0m|| 8
[32;1m[Board] [0m  -------------------
[32;1m[Board] [0m7 ||[30;1mp[0m|[30;1mp[0m|[30;1mp[0m|[30;1mp[0m|[30;1mp[0m|[30;1mp[0m|[30;1mp[0m|[30;1mp[0m|| 7
[32;1m[Board] [0m  -------------------
[32;1m[Board] [0m6 ||[7;1m [0m| |[30;1mk[0m| |[7;1m [0m|[30;1mk[0m|[7;1m [0m| || 6
[32;1m[Board] [0m  -------------------
[32;1m[Board] [0m5 || |[7;1m [0m| |[7;1m [0m| |[7;1m [0m| |[7;1m [0m|| 5
[32;1m[Board] [0m  -------------------
[32;1m[Board] [0m4 ||[7;1m [0m| |[7;1m [0m| |[7;1m [0m| |[7;1m [0m| || 4
[32;1m[Board] [0m  -------------------
[32;1m[Board] [0m3 || |[7;1m [0m|[0;1mp[0m|[7;1m [0m|[0;1mp[0m|[7;1m [0m| |[7;1m [0m|| 3
[32;1m[Board] [0m  -------------------
[32;1m[Board] [0m2 ||[0;1mp[0m|[0;1mp[0m|[7;1m [0m|[0;1mp[0m|[7;1m [0m|[0;1mp[0m|[0;1mp[0m|[0;1mp[0m|| 2
[32;1m[Board] [0m  -------------------
[32;1m[Board] [0m1 ||[0;1mr[0m|[0;1mk[0m|[0;1mb[0m|[0;1mQ[0m|[0;1mK[0m|[0;1mb[0m|[0;1mk[0m|[0;1mr[0m|| 1
[32;1m[Board] [0m  -------------------
[32;1m[Board] [0m    a b c d e f g h
[32;1m[Board] [0m
[32;1m[Referee] [0mThis is the turn of the White player...
Input file: championship/lizzie-iii-bbd/history.csv
Output file: championship/lizzie-iii-bbd/move.csv
Turn of: white
Succesful move
c2c3
8 | R N B Q K B N R 
7 | P P P P P P P P 
6 | _ _ _ _ _ _ _ _ 
5 | _ _ _ _ _ _ _ _ 
4 | _ _ _ _ _ _ _ _ 
3 | _ _ P _ _ _ _ _ 
2 | P P _ P P P P P 
1 | R N B Q K B N R 
-------------------
  | A B C D E F G H 

Turn of: black
Succesful move
b8c6
8 | R _ B Q K B N R 
7 | P P P P P P P P 
6 | _ _ N _ _ _ _ _ 
5 | _ _ _ _ _ _ _ _ 
4 | _ _ _ _ _ _ _ _ 
3 | _ _ P _ _ _ _ _ 
2 | P P _ P P P P P 
1 | R N B Q K B N R 
-------------------
  | A B C D E F G H 

Turn of: white
Succesful move
e2e3
8 | R _ B Q K B N R 
7 | P P P P P P P P 
6 | _ _ N _ _ _ _ _ 
5 | _ _ _ _ _ _ _ _ 
4 | _ _ _ _ _ _ _ _ 
3 | _ _ P _ P _ _ _ 
2 | P P _ P _ P P P 
1 | R N B Q K B N R 
-------------------
  | A B C D E F G H 

Turn of: black
Succesful move
g8f6
8 | R _ B Q K B _ R 
7 | P P P P P P P P 
6 | _ _ N _ _ N _ _ 
5 | _ _ _ _ _ _ _ _ 
4 | _ _ _ _ _ _ _ _ 
3 | _ _ P _ P _ _ _ 
2 | P P _ P _ P P P 
1 | R N B Q K B N R 
-------------------
  | A B C D E F G H 

We are playing as White
Move history:
c2c3
b8c6
e2e3
g8f6
8 | R _ B Q K B _ R 
7 | P P P P P P P P 
6 | _ _ N _ _ N _ _ 
5 | _ _ _ _ _ _ _ _ 
4 | _ _ _ _ _ _ _ _ 
3 | _ _ P _ P _ _ _ 
2 | P P _ P _ P P P 
1 | R N B Q K B N R 
-------------------
  | A B C D E F G H 

It is white's turn to play.
AI's move: f2f4
Move written: f2f4
[32;1m[Game] [0mPlayer's error code: 0
[32;1m[Game] [0mChecking move validity...
[32;1m[Board] [0mInitializing board...
[32;1m[Board] [0mLoading history file `championship/lizzie-iii-bbd/history.csv`...
[32;1m[Board] [0mLoaded 4 move(s).
[32;1m[Board] [0mLoading move file `championship/lizzie-iii-bbd/move.csv`...
[32;1m[Board] [0mWhite player is playing f2 to f4.
[32;1m[Board] [0m
[32;1m[Board] [0m    a b c d e f g h 
[32;1m[Board] [0m  -------------------
[32;1m[Board] [0m8 ||[30;1mr[0m| |[30;1mb[0m|[30;1mQ[0m|[30;1mK[0m|[30;1mb[0m|[7;1m [0m|[30;1mr[0m|| 8
[32;1m[Board] [0m  -------------------
[32;1m[Board] [0m7 ||[30;1mp[0m|[30;1mp[0m|[30;1mp[0m|[30;1mp[0m|[30;1mp[0m|[30;1mp[0m|[30;1mp[0m|[30;1mp[0m|| 7
[32;1m[Board] [0m  -------------------
[32;1m[Board] [0m6 ||[7;1m [0m| |[30;1mk[0m| |[7;1m [0m|[30;1mk[0m|[7;1m [0m| || 6
[32;1m[Board] [0m  -------------------
[32;1m[Board] [0m5 || |[7;1m [0m| |[7;1m [0m| |[7;1m [0m| |[7;1m [0m|| 5
[32;1m[Board] [0m  -------------------
[32;1m[Board] [0m4 ||[7;1m [0m| |[7;1m [0m| |[7;1m [0m|[0;1mp[0m|[7;1m [0m| || 4
[32;1m[Board] [0m  -------------------
[32;1m[Board] [0m3 || |[7;1m [0m|[0;1mp[0m|[7;1m [0m|[0;1mp[0m|[7;1m [0m| |[7;1m [0m|| 3
[32;1m[Board] [0m  -------------------
[32;1m[Board] [0m2 ||[0;1mp[0m|[0;1mp[0m|[7;1m [0m|[0;1mp[0m|[7;1m [0m| |[0;1mp[0m|[0;1mp[0m|| 2
[32;1m[Board] [0m  -------------------
[32;1m[Board] [0m1 ||[0;1mr[0m|[0;1mk[0m|[0;1mb[0m|[0;1mQ[0m|[0;1mK[0m|[0;1mb[0m|[0;1mk[0m|[0;1mr[0m|| 1
[32;1m[Board] [0m  -------------------
[32;1m[Board] [0m    a b c d e f g h
[32;1m[Board] [0m
[32;1m[Referee] [0mThis is the turn of the Black player...
info score 432 depth 1 nodes 28 time 0
info score 308 depth 2 nodes 380 time 7
info score 357 depth 3 nodes 5111 time 42
info score 275 depth 4 nodes 27046 time 203
info score 298 depth 5 nodes 313818 time 1993
info score 285 depth 6 nodes 1948396 time 12580
bestmove e7e5
[32;1m[Game] [0mPlayer's error code: 0
[32;1m[Game] [0mChecking move validity...
[32;1m[Board] [0mInitializing board...
[32;1m[Board] [0mLoading history file `championship/lizzie-iii-bbd/history.csv`...
[32;1m[Board] [0mLoaded 5 move(s).
[32;1m[Board] [0mLoading move file `championship/lizzie-iii-bbd/move.csv`...
[32;1m[Board] [0mBlack player is playing e7 to e5.
[32;1m[Board] [0m
[32;1m[Board] [0m    a b c d e f g h 
[32;1m[Board] [0m  -------------------
[32;1m[Board] [0m8 ||[30;1mr[0m| |[30;1mb[0m|[30;1mQ[0m|[30;1mK[0m|[30;1mb[0m|[7;1m [0m|[30;1mr[0m|| 8
[32;1m[Board] [0m  -------------------
[32;1m[Board] [0m7 ||[30;1mp[0m|[30;1mp[0m|[30;1mp[0m|[30;1mp[0m| |[30;1mp[0m|[30;1mp[0m|[30;1mp[0m|| 7
[32;1m[Board] [0m  -------------------
[32;1m[Board] [0m6 ||[7;1m [0m| |[30;1mk[0m| |[7;1m [0m|[30;1mk[0m|[7;1m [0m| || 6
[32;1m[Board] [0m  -------------------
[32;1m[Board] [0m5 || |[7;1m [0m| |[7;1m [0m|[30;1mp[0m|[7;1m [0m| |[7;1m [0m|| 5
[32;1m[Board] [0m  -------------------
[32;1m[Board] [0m4 ||[7;1m [0m| |[7;1m [0m| |[7;1m [0m|[0;1mp[0m|[7;1m [0m| || 4
[32;1m[Board] [0m  -------------------
[32;1m[Board] [0m3 || |[7;1m [0m|[0;1mp[0m|[7;1m [0m|[0;1mp[0m|[7;1m [0m| |[7;1m [0m|| 3
[32;1m[Board] [0m  -------------------
[32;1m[Board] [0m2 ||[0;1mp[0m|[0;1mp[0m|[7;1m [0m|[0;1mp[0m|[7;1m [0m| |[0;1mp[0m|[0;1mp[0m|| 2
[32;1m[Board] [0m  -------------------
[32;1m[Board] [0m1 ||[0;1mr[0m|[0;1mk[0m|[0;1mb[0m|[0;1mQ[0m|[0;1mK[0m|[0;1mb[0m|[0;1mk[0m|[0;1mr[0m|| 1
[32;1m[Board] [0m  -------------------
[32;1m[Board] [0m    a b c d e f g h
[32;1m[Board] [0m
[32;1m[Referee] [0mThis is the turn of the White player...
Input file: championship/lizzie-iii-bbd/history.csv
Output file: championship/lizzie-iii-bbd/move.csv
Turn of: white
Succesful move
c2c3
8 | R N B Q K B N R 
7 | P P P P P P P P 
6 | _ _ _ _ _ _ _ _ 
5 | _ _ _ _ _ _ _ _ 
4 | _ _ _ _ _ _ _ _ 
3 | _ _ P _ _ _ _ _ 
2 | P P _ P P P P P 
1 | R N B Q K B N R 
-------------------
  | A B C D E F G H 

Turn of: black
Succesful move
b8c6
8 | R _ B Q K B N R 
7 | P P P P P P P P 
6 | _ _ N _ _ _ _ _ 
5 | _ _ _ _ _ _ _ _ 
4 | _ _ _ _ _ _ _ _ 
3 | _ _ P _ _ _ _ _ 
2 | P P _ P P P P P 
1 | R N B Q K B N R 
-------------------
  | A B C D E F G H 

Turn of: white
Succesful move
e2e3
8 | R _ B Q K B N R 
7 | P P P P P P P P 
6 | _ _ N _ _ _ _ _ 
5 | _ _ _ _ _ _ _ _ 
4 | _ _ _ _ _ _ _ _ 
3 | _ _ P _ P _ _ _ 
2 | P P _ P _ P P P 
1 | R N B Q K B N R 
-------------------
  | A B C D E F G H 

Turn of: black
Succesful move
g8f6
8 | R _ B Q K B _ R 
7 | P P P P P P P P 
6 | _ _ N _ _ N _ _ 
5 | _ _ _ _ _ _ _ _ 
4 | _ _ _ _ _ _ _ _ 
3 | _ _ P _ P _ _ _ 
2 | P P _ P _ P P P 
1 | R N B Q K B N R 
-------------------
  | A B C D E F G H 

Turn of: white
Succesful move
f2f4
8 | R _ B Q K B _ R 
7 | P P P P P P P P 
6 | _ _ N _ _ N _ _ 
5 | _ _ _ _ _ _ _ _ 
4 | _ _ _ _ _ P _ _ 
3 | _ _ P _ P _ _ _ 
2 | P P _ P _ _ P P 
1 | R N B Q K B N R 
-------------------
  | A B C D E F G H 

Turn of: black
Succesful move
e7e5
8 | R _ B Q K B _ R 
7 | P P P P _ P P P 
6 | _ _ N _ _ N _ _ 
5 | _ _ _ _ P _ _ _ 
4 | _ _ _ _ _ P _ _ 
3 | _ _ P _ P _ _ _ 
2 | P P _ P _ _ P P 
1 | R N B Q K B N R 
-------------------
  | A B C D E F G H 

We are playing as White
Move history:
c2c3
b8c6
e2e3
g8f6
f2f4
e7e5
8 | R _ B Q K B _ R 
7 | P P P P _ P P P 
6 | _ _ N _ _ N _ _ 
5 | _ _ _ _ P _ _ _ 
4 | _ _ _ _ _ P _ _ 
3 | _ _ P _ P _ _ _ 
2 | P P _ P _ _ P P 
1 | R N B Q K B N R 
-------------------
  | A B C D E F G H 

It is white's turn to play.
AI's move: g2g3
Move written: g2g3
[32;1m[Game] [0mPlayer's error code: 0
[32;1m[Game] [0mChecking move validity...
[32;1m[Board] [0mInitializing board...
[32;1m[Board] [0mLoading history file `championship/lizzie-iii-bbd/history.csv`...
[32;1m[Board] [0mLoaded 6 move(s).
[32;1m[Board] [0mLoading move file `championship/lizzie-iii-bbd/move.csv`...
[32;1m[Board] [0mWhite player is playing g2 to g3.
[32;1m[Board] [0m
[32;1m[Board] [0m    a b c d e f g h 
[32;1m[Board] [0m  -------------------
[32;1m[Board] [0m8 ||[30;1mr[0m| |[30;1mb[0m|[30;1mQ[0m|[30;1mK[0m|[30;1mb[0m|[7;1m [0m|[30;1mr[0m|| 8
[32;1m[Board] [0m  -------------------
[32;1m[Board] [0m7 ||[30;1mp[0m|[30;1mp[0m|[30;1mp[0m|[30;1mp[0m| |[30;1mp[0m|[30;1mp[0m|[30;1mp[0m|| 7
[32;1m[Board] [0m  -------------------
[32;1m[Board] [0m6 ||[7;1m [0m| |[30;1mk[0m| |[7;1m [0m|[30;1mk[0m|[7;1m [0m| || 6
[32;1m[Board] [0m  -------------------
[32;1m[Board] [0m5 || |[7;1m [0m| |[7;1m [0m|[30;1mp[0m|[7;1m [0m| |[7;1m [0m|| 5
[32;1m[Board] [0m  -------------------
[32;1m[Board] [0m4 ||[7;1m [0m| |[7;1m [0m| |[7;1m [0m|[0;1mp[0m|[7;1m [0m| || 4
[32;1m[Board] [0m  -------------------
[32;1m[Board] [0m3 || |[7;1m [0m|[0;1mp[0m|[7;1m [0m|[0;1mp[0m|[7;1m [0m|[0;1mp[0m|[7;1m [0m|| 3
[32;1m[Board] [0m  -------------------
[32;1m[Board] [0m2 ||[0;1mp[0m|[0;1mp[0m|[7;1m [0m|[0;1mp[0m|[7;1m [0m| |[7;1m [0m|[0;1mp[0m|| 2
[32;1m[Board] [0m  -------------------
[32;1m[Board] [0m1 ||[0;1mr[0m|[0;1mk[0m|[0;1mb[0m|[0;1mQ[0m|[0;1mK[0m|[0;1mb[0m|[0;1mk[0m|[0;1mr[0m|| 1
[32;1m[Board] [0m  -------------------
[32;1m[Board] [0m    a b c d e f g h
[32;1m[Board] [0m
[32;1m[Referee] [0mThis is the turn of the Black player...
info score 457 depth 1 nodes 51 time 0
info score 388 depth 2 nodes 284 time 6
info score 408 depth 3 nodes 3083 time 33
info score 351 depth 4 nodes 15225 time 121
info score 374 depth 5 nodes 66561 time 426
info score 319 depth 6 nodes 757152 time 4943
bestmove f8d6
[32;1m[Game] [0mPlayer's error code: 0
[32;1m[Game] [0mChecking move validity...
[32;1m[Board] [0mInitializing board...
[32;1m[Board] [0mLoading history file `championship/lizzie-iii-bbd/history.csv`...
[32;1m[Board] [0mLoaded 7 move(s).
[32;1m[Board] [0mLoading move file `championship/lizzie-iii-bbd/move.csv`...
[32;1m[Board] [0mBlack player is playing f8 to d6.
[32;1m[Board] [0m
[32;1m[Board] [0m    a b c d e f g h 
[32;1m[Board] [0m  -------------------
[32;1m[Board] [0m8 ||[30;1mr[0m| |[30;1mb[0m|[30;1mQ[0m|[30;1mK[0m| |[7;1m [0m|[30;1mr[0m|| 8
[32;1m[Board] [0m  -------------------
[32;1m[Board] [0m7 ||[30;1mp[0m|[30;1mp[0m|[30;1mp[0m|[30;1mp[0m| |[30;1mp[0m|[30;1mp[0m|[30;1mp[0m|| 7
[32;1m[Board] [0m  -------------------
[32;1m[Board] [0m6 ||[7;1m [0m| |[30;1mk[0m|[30;1mb[0m|[7;1m [0m|[30;1mk[0m|[7;1m [0m| || 6
[32;1m[Board] [0m  -------------------
[32;1m[Board] [0m5 || |[7;1m [0m| |[7;1m [0m|[30;1mp[0m|[7;1m [0m| |[7;1m [0m|| 5
[32;1m[Board] [0m  -------------------
[32;1m[Board] [0m4 ||[7;1m [0m| |[7;1m [0m| |[7;1m [0m|[0;1mp[0m|[7;1m [0m| || 4
[32;1m[Board] [0m  -------------------
[32;1m[Board] [0m3 || |[7;1m [0m|[0;1mp[0m|[7;1m [0m|[0;1mp[0m|[7;1m [0m|[0;1mp[0m|[7;1m [0m|| 3
[32;1m[Board] [0m  -------------------
[32;1m[Board] [0m2 ||[0;1mp[0m|[0;1mp[0m|[7;1m [0m|[0;1mp[0m|[7;1m [0m| |[7;1m [0m|[0;1mp[0m|| 2
[32;1m[Board] [0m  -------------------
[32;1m[Board] [0m1 ||[0;1mr[0m|[0;1mk[0m|[0;1mb[0m|[0;1mQ[0m|[0;1mK[0m|[0;1mb[0m|[0;1mk[0m|[0;1mr[0m|| 1
[32;1m[Board] [0m  -------------------
[32;1m[Board] [0m    a b c d e f g h
[32;1m[Board] [0m
[32;1m[Referee] [0mThis is the turn of the White player...
Input file: championship/lizzie-iii-bbd/history.csv
Output file: championship/lizzie-iii-bbd/move.csv
Turn of: white
Succesful move
c2c3
8 | R N B Q K B N R 
7 | P P P P P P P P 
6 | _ _ _ _ _ _ _ _ 
5 | _ _ _ _ _ _ _ _ 
4 | _ _ _ _ _ _ _ _ 
3 | _ _ P _ _ _ _ _ 
2 | P P _ P P P P P 
1 | R N B Q K B N R 
-------------------
  | A B C D E F G H 

Turn of: black
Succesful move
b8c6
8 | R _ B Q K B N R 
7 | P P P P P P P P 
6 | _ _ N _ _ _ _ _ 
5 | _ _ _ _ _ _ _ _ 
4 | _ _ _ _ _ _ _ _ 
3 | _ _ P _ _ _ _ _ 
2 | P P _ P P P P P 
1 | R N B Q K B N R 
-------------------
  | A B C D E F G H 

Turn of: white
Succesful move
e2e3
8 | R _ B Q K B N R 
7 | P P P P P P P P 
6 | _ _ N _ _ _ _ _ 
5 | _ _ _ _ _ _ _ _ 
4 | _ _ _ _ _ _ _ _ 
3 | _ _ P _ P _ _ _ 
2 | P P _ P _ P P P 
1 | R N B Q K B N R 
-------------------
  | A B C D E F G H 

Turn of: black
Succesful move
g8f6
8 | R _ B Q K B _ R 
7 | P P P P P P P P 
6 | _ _ N _ _ N _ _ 
5 | _ _ _ _ _ _ _ _ 
4 | _ _ _ _ _ _ _ _ 
3 | _ _ P _ P _ _ _ 
2 | P P _ P _ P P P 
1 | R N B Q K B N R 
-------------------
  | A B C D E F G H 

Turn of: white
Succesful move
f2f4
8 | R _ B Q K B _ R 
7 | P P P P P P P P 
6 | _ _ N _ _ N _ _ 
5 | _ _ _ _ _ _ _ _ 
4 | _ _ _ _ _ P _ _ 
3 | _ _ P _ P _ _ _ 
2 | P P _ P _ _ P P 
1 | R N B Q K B N R 
-------------------
  | A B C D E F G H 

Turn of: black
Succesful move
e7e5
8 | R _ B Q K B _ R 
7 | P P P P _ P P P 
6 | _ _ N _ _ N _ _ 
5 | _ _ _ _ P _ _ _ 
4 | _ _ _ _ _ P _ _ 
3 | _ _ P _ P _ _ _ 
2 | P P _ P _ _ P P 
1 | R N B Q K B N R 
-------------------
  | A B C D E F G H 

Turn of: white
Succesful move
g2g3
8 | R _ B Q K B _ R 
7 | P P P P _ P P P 
6 | _ _ N _ _ N _ _ 
5 | _ _ _ _ P _ _ _ 
4 | _ _ _ _ _ P _ _ 
3 | _ _ P _ P _ P _ 
2 | P P _ P _ _ _ P 
1 | R N B Q K B N R 
-------------------
  | A B C D E F G H 

Turn of: black
Succesful move
f8d6
8 | R _ B Q K _ _ R 
7 | P P P P _ P P P 
6 | _ _ N B _ N _ _ 
5 | _ _ _ _ P _ _ _ 
4 | _ _ _ _ _ P _ _ 
3 | _ _ P _ P _ P _ 
2 | P P _ P _ _ _ P 
1 | R N B Q K B N R 
-------------------
  | A B C D E F G H 

We are playing as White
Move history:
c2c3
b8c6
e2e3
g8f6
f2f4
e7e5
g2g3
f8d6
8 | R _ B Q K _ _ R 
7 | P P P P _ P P P 
6 | _ _ N B _ N _ _ 
5 | _ _ _ _ P _ _ _ 
4 | _ _ _ _ _ P _ _ 
3 | _ _ P _ P _ P _ 
2 | P P _ P _ _ _ P 
1 | R N B Q K B N R 
-------------------
  | A B C D E F G H 

It is white's turn to play.
AI's move: a2a4
Move written: a2a4
[32;1m[Game] [0mPlayer's error code: 0
[32;1m[Game] [0mChecking move validity...
[32;1m[Board] [0mInitializing board...
[32;1m[Board] [0mLoading history file `championship/lizzie-iii-bbd/history.csv`...
[32;1m[Board] [0mLoaded 8 move(s).
[32;1m[Board] [0mLoading move file `championship/lizzie-iii-bbd/move.csv`...
[32;1m[Board] [0mWhite player is playing a2 to a4.
[32;1m[Board] [0m
[32;1m[Board] [0m    a b c d e f g h 
[32;1m[Board] [0m  -------------------
[32;1m[Board] [0m8 ||[30;1mr[0m| |[30;1mb[0m|[30;1mQ[0m|[30;1mK[0m| |[7;1m [0m|[30;1mr[0m|| 8
[32;1m[Board] [0m  -------------------
[32;1m[Board] [0m7 ||[30;1mp[0m|[30;1mp[0m|[30;1mp[0m|[30;1mp[0m| |[30;1mp[0m|[30;1mp[0m|[30;1mp[0m|| 7
[32;1m[Board] [0m  -------------------
[32;1m[Board] [0m6 ||[7;1m [0m| |[30;1mk[0m|[30;1mb[0m|[7;1m [0m|[30;1mk[0m|[7;1m [0m| || 6
[32;1m[Board] [0m  -------------------
[32;1m[Board] [0m5 || |[7;1m [0m| |[7;1m [0m|[30;1mp[0m|[7;1m [0m| |[7;1m [0m|| 5
[32;1m[Board] [0m  -------------------
[32;1m[Board] [0m4 ||[0;1mp[0m| |[7;1m [0m| |[7;1m [0m|[0;1mp[0m|[7;1m [0m| || 4
[32;1m[Board] [0m  -------------------
[32;1m[Board] [0m3 || |[7;1m [0m|[0;1mp[0m|[7;1m [0m|[0;1mp[0m|[7;1m [0m|[0;1mp[0m|[7;1m [0m|| 3
[32;1m[Board] [0m  -------------------
[32;1m[Board] [0m2 ||[7;1m [0m|[0;1mp[0m|[7;1m [0m|[0;1mp[0m|[7;1m [0m| |[7;1m [0m|[0;1mp[0m|| 2
[32;1m[Board] [0m  -------------------
[32;1m[Board] [0m1 ||[0;1mr[0m|[0;1mk[0m|[0;1mb[0m|[0;1mQ[0m|[0;1mK[0m|[0;1mb[0m|[0;1mk[0m|[0;1mr[0m|| 1
[32;1m[Board] [0m  -------------------
[32;1m[Board] [0m    a b c d e f g h
[32;1m[Board] [0m
[32;1m[Referee] [0mThis is the turn of the Black player...
info score 617 depth 1 nodes 43 time 0
info score 582 depth 2 nodes 235 time 1
info score 602 depth 3 nodes 1925 time 10
info score 512 depth 4 nodes 13147 time 90
info score 533 depth 5 nodes 68693 time 437
info score 473 depth 6 nodes 528205 time 3338
bestmove e8e7
[32;1m[Game] [0mPlayer's error code: 0
[32;1m[Game] [0mChecking move validity...
[32;1m[Board] [0mInitializing board...
[32;1m[Board] [0mLoading history file `championship/lizzie-iii-bbd/history.csv`...
[32;1m[Board] [0mLoaded 9 move(s).
[32;1m[Board] [0mLoading move file `championship/lizzie-iii-bbd/move.csv`...
[32;1m[Board] [0mBlack player is playing e8 to e7.
[32;1m[Board] [0m
[32;1m[Board] [0m    a b c d e f g h 
[32;1m[Board] [0m  -------------------
[32;1m[Board] [0m8 ||[30;1mr[0m| |[30;1mb[0m|[30;1mQ[0m|[7;1m [0m| |[7;1m [0m|[30;1mr[0m|| 8
[32;1m[Board] [0m  -------------------
[32;1m[Board] [0m7 ||[30;1mp[0m|[30;1mp[0m|[30;1mp[0m|[30;1mp[0m|[30;1mK[0m|[30;1mp[0m|[30;1mp[0m|[30;1mp[0m|| 7
[32;1m[Board] [0m  -------------------
[32;1m[Board] [0m6 ||[7;1m [0m| |[30;1mk[0m|[30;1mb[0m|[7;1m [0m|[30;1mk[0m|[7;1m [0m| || 6
[32;1m[Board] [0m  -------------------
[32;1m[Board] [0m5 || |[7;1m [0m| |[7;1m [0m|[30;1mp[0m|[7;1m [0m| |[7;1m [0m|| 5
[32;1m[Board] [0m  -------------------
[32;1m[Board] [0m4 ||[0;1mp[0m| |[7;1m [0m| |[7;1m [0m|[0;1mp[0m|[7;1m [0m| || 4
[32;1m[Board] [0m  -------------------
[32;1m[Board] [0m3 || |[7;1m [0m|[0;1mp[0m|[7;1m [0m|[0;1mp[0m|[7;1m [0m|[0;1mp[0m|[7;1m [0m|| 3
[32;1m[Board] [0m  -------------------
[32;1m[Board] [0m2 ||[7;1m [0m|[0;1mp[0m|[7;1m [0m|[0;1mp[0m|[7;1m [0m| |[7;1m [0m|[0;1mp[0m|| 2
[32;1m[Board] [0m  -------------------
[32;1m[Board] [0m1 ||[0;1mr[0m|[0;1mk[0m|[0;1mb[0m|[0;1mQ[0m|[0;1mK[0m|[0;1mb[0m|[0;1mk[0m|[0;1mr[0m|| 1
[32;1m[Board] [0m  -------------------
[32;1m[Board] [0m    a b c d e f g h
[32;1m[Board] [0m
[32;1m[Referee] [0mThis is the turn of the White player...
Input file: championship/lizzie-iii-bbd/history.csv
Output file: championship/lizzie-iii-bbd/move.csv
Turn of: white
Succesful move
c2c3
8 | R N B Q K B N R 
7 | P P P P P P P P 
6 | _ _ _ _ _ _ _ _ 
5 | _ _ _ _ _ _ _ _ 
4 | _ _ _ _ _ _ _ _ 
3 | _ _ P _ _ _ _ _ 
2 | P P _ P P P P P 
1 | R N B Q K B N R 
-------------------
  | A B C D E F G H 

Turn of: black
Succesful move
b8c6
8 | R _ B Q K B N R 
7 | P P P P P P P P 
6 | _ _ N _ _ _ _ _ 
5 | _ _ _ _ _ _ _ _ 
4 | _ _ _ _ _ _ _ _ 
3 | _ _ P _ _ _ _ _ 
2 | P P _ P P P P P 
1 | R N B Q K B N R 
-------------------
  | A B C D E F G H 

Turn of: white
Succesful move
e2e3
8 | R _ B Q K B N R 
7 | P P P P P P P P 
6 | _ _ N _ _ _ _ _ 
5 | _ _ _ _ _ _ _ _ 
4 | _ _ _ _ _ _ _ _ 
3 | _ _ P _ P _ _ _ 
2 | P P _ P _ P P P 
1 | R N B Q K B N R 
-------------------
  | A B C D E F G H 

Turn of: black
Succesful move
g8f6
8 | R _ B Q K B _ R 
7 | P P P P P P P P 
6 | _ _ N _ _ N _ _ 
5 | _ _ _ _ _ _ _ _ 
4 | _ _ _ _ _ _ _ _ 
3 | _ _ P _ P _ _ _ 
2 | P P _ P _ P P P 
1 | R N B Q K B N R 
-------------------
  | A B C D E F G H 

Turn of: white
Succesful move
f2f4
8 | R _ B Q K B _ R 
7 | P P P P P P P P 
6 | _ _ N _ _ N _ _ 
5 | _ _ _ _ _ _ _ _ 
4 | _ _ _ _ _ P _ _ 
3 | _ _ P _ P _ _ _ 
2 | P P _ P _ _ P P 
1 | R N B Q K B N R 
-------------------
  | A B C D E F G H 

Turn of: black
Succesful move
e7e5
8 | R _ B Q K B _ R 
7 | P P P P _ P P P 
6 | _ _ N _ _ N _ _ 
5 | _ _ _ _ P _ _ _ 
4 | _ _ _ _ _ P _ _ 
3 | _ _ P _ P _ _ _ 
2 | P P _ P _ _ P P 
1 | R N B Q K B N R 
-------------------
  | A B C D E F G H 

Turn of: white
Succesful move
g2g3
8 | R _ B Q K B _ R 
7 | P P P P _ P P P 
6 | _ _ N _ _ N _ _ 
5 | _ _ _ _ P _ _ _ 
4 | _ _ _ _ _ P _ _ 
3 | _ _ P _ P _ P _ 
2 | P P _ P _ _ _ P 
1 | R N B Q K B N R 
-------------------
  | A B C D E F G H 

Turn of: black
Succesful move
f8d6
8 | R _ B Q K _ _ R 
7 | P P P P _ P P P 
6 | _ _ N B _ N _ _ 
5 | _ _ _ _ P _ _ _ 
4 | _ _ _ _ _ P _ _ 
3 | _ _ P _ P _ P _ 
2 | P P _ P _ _ _ P 
1 | R N B Q K B N R 
-------------------
  | A B C D E F G H 

Turn of: white
Succesful move
a2a4
8 | R _ B Q K _ _ R 
7 | P P P P _ P P P 
6 | _ _ N B _ N _ _ 
5 | _ _ _ _ P _ _ _ 
4 | P _ _ _ _ P _ _ 
3 | _ _ P _ P _ P _ 
2 | _ P _ P _ _ _ P 
1 | R N B Q K B N R 
-------------------
  | A B C D E F G H 

Turn of: black
Succesful move
e8e7
8 | R _ B Q _ _ _ R 
7 | P P P P K P P P 
6 | _ _ N B _ N _ _ 
5 | _ _ _ _ P _ _ _ 
4 | P _ _ _ _ P _ _ 
3 | _ _ P _ P _ P _ 
2 | _ P _ P _ _ _ P 
1 | R N B Q K B N R 
-------------------
  | A B C D E F G H 

We are playing as White
Move history:
c2c3
b8c6
e2e3
g8f6
f2f4
e7e5
g2g3
f8d6
a2a4
e8e7
8 | R _ B Q _ _ _ R 
7 | P P P P K P P P 
6 | _ _ N B _ N _ _ 
5 | _ _ _ _ P _ _ _ 
4 | P _ _ _ _ P _ _ 
3 | _ _ P _ P _ P _ 
2 | _ P _ P _ _ _ P 
1 | R N B Q K B N R 
-------------------
  | A B C D E F G H 

It is white's turn to play.
AI's move: f1h3
Move written: f1h3
[32;1m[Game] [0mPlayer's error code: 0
[32;1m[Game] [0mChecking move validity...
[32;1m[Board] [0mInitializing board...
[32;1m[Board] [0mLoading history file `championship/lizzie-iii-bbd/history.csv`...
[32;1m[Board] [0mLoaded 10 move(s).
[32;1m[Board] [0mLoading move file `championship/lizzie-iii-bbd/move.csv`...
[32;1m[Board] [0mWhite player is playing f1 to h3.
[32;1m[Board] [0m
[32;1m[Board] [0m    a b c d e f g h 
[32;1m[Board] [0m  -------------------
[32;1m[Board] [0m8 ||[30;1mr[0m| |[30;1mb[0m|[30;1mQ[0m|[7;1m [0m| |[7;1m [0m|[30;1mr[0m|| 8
[32;1m[Board] [0m  -------------------
[32;1m[Board] [0m7 ||[30;1mp[0m|[30;1mp[0m|[30;1mp[0m|[30;1mp[0m|[30;1mK[0m|[30;1mp[0m|[30;1mp[0m|[30;1mp[0m|| 7
[32;1m[Board] [0m  -------------------
[32;1m[Board] [0m6 ||[7;1m [0m| |[30;1mk[0m|[30;1mb[0m|[7;1m [0m|[30;1mk[0m|[7;1m [0m| || 6
[32;1m[Board] [0m  -------------------
[32;1m[Board] [0m5 || |[7;1m [0m| |[7;1m [0m|[30;1mp[0m|[7;1m [0m| |[7;1m [0m|| 5
[32;1m[Board] [0m  -------------------
[32;1m[Board] [0m4 ||[0;1mp[0m| |[7;1m [0m| |[7;1m [0m|[0;1mp[0m|[7;1m [0m| || 4
[32;1m[Board] [0m  -------------------
[32;1m[Board] [0m3 || |[7;1m [0m|[0;1mp[0m|[7;1m [0m|[0;1mp[0m|[7;1m [0m|[0;1mp[0m|[0;1mb[0m|| 3
[32;1m[Board] [0m  -------------------
[32;1m[Board] [0m2 ||[7;1m [0m|[0;1mp[0m|[7;1m [0m|[0;1mp[0m|[7;1m [0m| |[7;1m [0m|[0;1mp[0m|| 2
[32;1m[Board] [0m  -------------------
[32;1m[Board] [0m1 ||[0;1mr[0m|[0;1mk[0m|[0;1mb[0m|[0;1mQ[0m|[0;1mK[0m|[7;1m [0m|[0;1mk[0m|[0;1mr[0m|| 1
[32;1m[Board] [0m  -------------------
[32;1m[Board] [0m    a b c d e f g h
[32;1m[Board] [0m
[32;1m[Referee] [0mThis is the turn of the Black player...
info score 624 depth 1 nodes 52 time 0
info score 590 depth 2 nodes 279 time 2
info score 610 depth 3 nodes 2051 time 25
info score 519 depth 4 nodes 12163 time 164
info score 519 depth 5 nodes 94688 time 904
info score 488 depth 6 nodes 615227 time 4291
bestmove d8e8
[32;1m[Game] [0mPlayer's error code: 0
[32;1m[Game] [0mChecking move validity...
[32;1m[Board] [0mInitializing board...
[32;1m[Board] [0mLoading history file `championship/lizzie-iii-bbd/history.csv`...
[32;1m[Board] [0mLoaded 11 move(s).
[32;1m[Board] [0mLoading move file `championship/lizzie-iii-bbd/move.csv`...
[32;1m[Board] [0mBlack player is playing d8 to e8.
[32;1m[Board] [0m
[32;1m[Board] [0m    a b c d e f g h 
[32;1m[Board] [0m  -------------------
[32;1m[Board] [0m8 ||[30;1mr[0m| |[30;1mb[0m| |[30;1mQ[0m| |[7;1m [0m|[30;1mr[0m|| 8
[32;1m[Board] [0m  -------------------
[32;1m[Board] [0m7 ||[30;1mp[0m|[30;1mp[0m|[30;1mp[0m|[30;1mp[0m|[30;1mK[0m|[30;1mp[0m|[30;1mp[0m|[30;1mp[0m|| 7
[32;1m[Board] [0m  -------------------
[32;1m[Board] [0m6 ||[7;1m [0m| |[30;1mk[0m|[30;1mb[0m|[7;1m [0m|[30;1mk[0m|[7;1m [0m| || 6
[32;1m[Board] [0m  -------------------
[32;1m[Board] [0m5 || |[7;1m [0m| |[7;1m [0m|[30;1mp[0m|[7;1m [0m| |[7;1m [0m|| 5
[32;1m[Board] [0m  -------------------
[32;1m[Board] [0m4 ||[0;1mp[0m| |[7;1m [0m| |[7;1m [0m|[0;1mp[0m|[7;1m [0m| || 4
[32;1m[Board] [0m  -------------------
[32;1m[Board] [0m3 || |[7;1m [0m|[0;1mp[0m|[7;1m [0m|[0;1mp[0m|[7;1m [0m|[0;1mp[0m|[0;1mb[0m|| 3
[32;1m[Board] [0m  -------------------
[32;1m[Board] [0m2 ||[7;1m [0m|[0;1mp[0m|[7;1m [0m|[0;1mp[0m|[7;1m [0m| |[7;1m [0m|[0;1mp[0m|| 2
[32;1m[Board] [0m  -------------------
[32;1m[Board] [0m1 ||[0;1mr[0m|[0;1mk[0m|[0;1mb[0m|[0;1mQ[0m|[0;1mK[0m|[7;1m [0m|[0;1mk[0m|[0;1mr[0m|| 1
[32;1m[Board] [0m  -------------------
[32;1m[Board] [0m    a b c d e f g h
[32;1m[Board] [0m
[32;1m[Referee] [0mThis is the turn of the White player...
Input file: championship/lizzie-iii-bbd/history.csv
Output file: championship/lizzie-iii-bbd/move.csv
Turn of: white
Succesful move
c2c3
8 | R N B Q K B N R 
7 | P P P P P P P P 
6 | _ _ _ _ _ _ _ _ 
5 | _ _ _ _ _ _ _ _ 
4 | _ _ _ _ _ _ _ _ 
3 | _ _ P _ _ _ _ _ 
2 | P P _ P P P P P 
1 | R N B Q K B N R 
-------------------
  | A B C D E F G H 

Turn of: black
Succesful move
b8c6
8 | R _ B Q K B N R 
7 | P P P P P P P P 
6 | _ _ N _ _ _ _ _ 
5 | _ _ _ _ _ _ _ _ 
4 | _ _ _ _ _ _ _ _ 
3 | _ _ P _ _ _ _ _ 
2 | P P _ P P P P P 
1 | R N B Q K B N R 
-------------------
  | A B C D E F G H 

Turn of: white
Succesful move
e2e3
8 | R _ B Q K B N R 
7 | P P P P P P P P 
6 | _ _ N _ _ _ _ _ 
5 | _ _ _ _ _ _ _ _ 
4 | _ _ _ _ _ _ _ _ 
3 | _ _ P _ P _ _ _ 
2 | P P _ P _ P P P 
1 | R N B Q K B N R 
-------------------
  | A B C D E F G H 

Turn of: black
Succesful move
g8f6
8 | R _ B Q K B _ R 
7 | P P P P P P P P 
6 | _ _ N _ _ N _ _ 
5 | _ _ _ _ _ _ _ _ 
4 | _ _ _ _ _ _ _ _ 
3 | _ _ P _ P _ _ _ 
2 | P P _ P _ P P P 
1 | R N B Q K B N R 
-------------------
  | A B C D E F G H 

Turn of: white
Succesful move
f2f4
8 | R _ B Q K B _ R 
7 | P P P P P P P P 
6 | _ _ N _ _ N _ _ 
5 | _ _ _ _ _ _ _ _ 
4 | _ _ _ _ _ P _ _ 
3 | _ _ P _ P _ _ _ 
2 | P P _ P _ _ P P 
1 | R N B Q K B N R 
-------------------
  | A B C D E F G H 

Turn of: black
Succesful move
e7e5
8 | R _ B Q K B _ R 
7 | P P P P _ P P P 
6 | _ _ N _ _ N _ _ 
5 | _ _ _ _ P _ _ _ 
4 | _ _ _ _ _ P _ _ 
3 | _ _ P _ P _ _ _ 
2 | P P _ P _ _ P P 
1 | R N B Q K B N R 
-------------------
  | A B C D E F G H 

Turn of: white
Succesful move
g2g3
8 | R _ B Q K B _ R 
7 | P P P P _ P P P 
6 | _ _ N _ _ N _ _ 
5 | _ _ _ _ P _ _ _ 
4 | _ _ _ _ _ P _ _ 
3 | _ _ P _ P _ P _ 
2 | P P _ P _ _ _ P 
1 | R N B Q K B N R 
-------------------
  | A B C D E F G H 

Turn of: black
Succesful move
f8d6
8 | R _ B Q K _ _ R 
7 | P P P P _ P P P 
6 | _ _ N B _ N _ _ 
5 | _ _ _ _ P _ _ _ 
4 | _ _ _ _ _ P _ _ 
3 | _ _ P _ P _ P _ 
2 | P P _ P _ _ _ P 
1 | R N B Q K B N R 
-------------------
  | A B C D E F G H 

Turn of: white
Succesful move
a2a4
8 | R _ B Q K _ _ R 
7 | P P P P _ P P P 
6 | _ _ N B _ N _ _ 
5 | _ _ _ _ P _ _ _ 
4 | P _ _ _ _ P _ _ 
3 | _ _ P _ P _ P _ 
2 | _ P _ P _ _ _ P 
1 | R N B Q K B N R 
-------------------
  | A B C D E F G H 

Turn of: black
Succesful move
e8e7
8 | R _ B Q _ _ _ R 
7 | P P P P K P P P 
6 | _ _ N B _ N _ _ 
5 | _ _ _ _ P _ _ _ 
4 | P _ _ _ _ P _ _ 
3 | _ _ P _ P _ P _ 
2 | _ P _ P _ _ _ P 
1 | R N B Q K B N R 
-------------------
  | A B C D E F G H 

Turn of: white
Succesful move
f1h3
8 | R _ B Q _ _ _ R 
7 | P P P P K P P P 
6 | _ _ N B _ N _ _ 
5 | _ _ _ _ P _ _ _ 
4 | P _ _ _ _ P _ _ 
3 | _ _ P _ P _ P B 
2 | _ P _ P _ _ _ P 
1 | R N B Q K _ N R 
-------------------
  | A B C D E F G H 

Turn of: black
Succesful move
d8e8
8 | R _ B _ Q _ _ R 
7 | P P P P K P P P 
6 | _ _ N B _ N _ _ 
5 | _ _ _ _ P _ _ _ 
4 | P _ _ _ _ P _ _ 
3 | _ _ P _ P _ P B 
2 | _ P _ P _ _ _ P 
1 | R N B Q K _ N R 
-------------------
  | A B C D E F G H 

We are playing as White
Move history:
c2c3
b8c6
e2e3
g8f6
f2f4
e7e5
g2g3
f8d6
a2a4
e8e7
f1h3
d8e8
8 | R _ B _ Q _ _ R 
7 | P P P P K P P P 
6 | _ _ N B _ N _ _ 
5 | _ _ _ _ P _ _ _ 
4 | P _ _ _ _ P _ _ 
3 | _ _ P _ P _ P B 
2 | _ P _ P _ _ _ P 
1 | R N B Q K _ N R 
-------------------
  | A B C D E F G H 

It is white's turn to play.
AI's move: g1e2
Move written: g1e2
[32;1m[Game] [0mPlayer's error code: 0
[32;1m[Game] [0mChecking move validity...
[32;1m[Board] [0mInitializing board...
[32;1m[Board] [0mLoading history file `championship/lizzie-iii-bbd/history.csv`...
[32;1m[Board] [0mLoaded 12 move(s).
[32;1m[Board] [0mLoading move file `championship/lizzie-iii-bbd/move.csv`...
[32;1m[Board] [0mWhite player is playing g1 to e2.
[32;1m[Board] [0m
[32;1m[Board] [0m    a b c d e f g h 
[32;1m[Board] [0m  -------------------
[32;1m[Board] [0m8 ||[30;1mr[0m| |[30;1mb[0m| |[30;1mQ[0m| |[7;1m [0m|[30;1mr[0m|| 8
[32;1m[Board] [0m  -------------------
[32;1m[Board] [0m7 ||[30;1mp[0m|[30;1mp[0m|[30;1mp[0m|[30;1mp[0m|[30;1mK[0m|[30;1mp[0m|[30;1mp[0m|[30;1mp[0m|| 7
[32;1m[Board] [0m  -------------------
[32;1m[Board] [0m6 ||[7;1m [0m| |[30;1mk[0m|[30;1mb[0m|[7;1m [0m|[30;1mk[0m|[7;1m [0m| || 6
[32;1m[Board] [0m  -------------------
[32;1m[Board] [0m5 || |[7;1m [0m| |[7;1m [0m|[30;1mp[0m|[7;1m [0m| |[7;1m [0m|| 5
[32;1m[Board] [0m  -------------------
[32;1m[Board] [0m4 ||[0;1mp[0m| |[7;1m [0m| |[7;1m [0m|[0;1mp[0m|[7;1m [0m| || 4
[32;1m[Board] [0m  -------------------
[32;1m[Board] [0m3 || |[7;1m [0m|[0;1mp[0m|[7;1m [0m|[0;1mp[0m|[7;1m [0m|[0;1mp[0m|[0;1mb[0m|| 3
[32;1m[Board] [0m  -------------------
[32;1m[Board] [0m2 ||[7;1m [0m|[0;1mp[0m|[7;1m [0m|[0;1mp[0m|[0;1mk[0m| |[7;1m [0m|[0;1mp[0m|| 2
[32;1m[Board] [0m  -------------------
[32;1m[Board] [0m1 ||[0;1mr[0m|[0;1mk[0m|[0;1mb[0m|[0;1mQ[0m|[0;1mK[0m|[7;1m [0m| |[0;1mr[0m|| 1
[32;1m[Board] [0m  -------------------
[32;1m[Board] [0m    a b c d e f g h
[32;1m[Board] [0m
[32;1m[Referee] [0mThis is the turn of the Black player...
info score 596 depth 1 nodes 67 time 1
info score 555 depth 2 nodes 719 time 12
info score 550 depth 3 nodes 7257 time 70
info score 549 depth 4 nodes 13495 time 114
info score 550 depth 5 nodes 111910 time 735
info score 488 depth 6 nodes 395071 time 2487
bestmove e5f4
[32;1m[Game] [0mPlayer's error code: 0
[32;1m[Game] [0mChecking move validity...
[32;1m[Board] [0mInitializing board...
[32;1m[Board] [0mLoading history file `championship/lizzie-iii-bbd/history.csv`...
[32;1m[Board] [0mLoaded 13 move(s).
[32;1m[Board] [0mLoading move file `championship/lizzie-iii-bbd/move.csv`...
[32;1m[Board] [0mBlack player is playing e5 to f4.
[32;1m[Board] [0m[5;1mBlack Pawn is taking White Pawn.[0m
[32;1m[Board] [0m
[32;1m[Board] [0m    a b c d e f g h 
[32;1m[Board] [0m  -------------------
[32;1m[Board] [0m8 ||[30;1mr[0m| |[30;1mb[0m| |[30;1mQ[0m| |[7;1m [0m|[30;1mr[0m|| 8
[32;1m[Board] [0m  -------------------
[32;1m[Board] [0m7 ||[30;1mp[0m|[30;1mp[0m|[30;1mp[0m|[30;1mp[0m|[30;1mK[0m|[30;1mp[0m|[30;1mp[0m|[30;1mp[0m|| 7
[32;1m[Board] [0m  -------------------
[32;1m[Board] [0m6 ||[7;1m [0m| |[30;1mk[0m|[30;1mb[0m|[7;1m [0m|[30;1mk[0m|[7;1m [0m| || 6
[32;1m[Board] [0m  -------------------
[32;1m[Board] [0m5 || |[7;1m [0m| |[7;1m [0m| |[7;1m [0m| |[7;1m [0m|| 5
[32;1m[Board] [0m  -------------------
[32;1m[Board] [0m4 ||[0;1mp[0m| |[7;1m [0m| |[7;1m [0m|[30;1mp[0m|[7;1m [0m| || 4
[32;1m[Board] [0m  -------------------
[32;1m[Board] [0m3 || |[7;1m [0m|[0;1mp[0m|[7;1m [0m|[0;1mp[0m|[7;1m [0m|[0;1mp[0m|[0;1mb[0m|| 3
[32;1m[Board] [0m  -------------------
[32;1m[Board] [0m2 ||[7;1m [0m|[0;1mp[0m|[7;1m [0m|[0;1mp[0m|[0;1mk[0m| |[7;1m [0m|[0;1mp[0m|| 2
[32;1m[Board] [0m  -------------------
[32;1m[Board] [0m1 ||[0;1mr[0m|[0;1mk[0m|[0;1mb[0m|[0;1mQ[0m|[0;1mK[0m|[7;1m [0m| |[0;1mr[0m|| 1
[32;1m[Board] [0m  -------------------
[32;1m[Board] [0m    a b c d e f g h
[32;1m[Board] [0m
[32;1m[Referee] [0mThis is the turn of the White player...
Input file: championship/lizzie-iii-bbd/history.csv
Output file: championship/lizzie-iii-bbd/move.csv
Turn of: white
Succesful move
c2c3
8 | R N B Q K B N R 
7 | P P P P P P P P 
6 | _ _ _ _ _ _ _ _ 
5 | _ _ _ _ _ _ _ _ 
4 | _ _ _ _ _ _ _ _ 
3 | _ _ P _ _ _ _ _ 
2 | P P _ P P P P P 
1 | R N B Q K B N R 
-------------------
  | A B C D E F G H 

Turn of: black
Succesful move
b8c6
8 | R _ B Q K B N R 
7 | P P P P P P P P 
6 | _ _ N _ _ _ _ _ 
5 | _ _ _ _ _ _ _ _ 
4 | _ _ _ _ _ _ _ _ 
3 | _ _ P _ _ _ _ _ 
2 | P P _ P P P P P 
1 | R N B Q K B N R 
-------------------
  | A B C D E F G H 

Turn of: white
Succesful move
e2e3
8 | R _ B Q K B N R 
7 | P P P P P P P P 
6 | _ _ N _ _ _ _ _ 
5 | _ _ _ _ _ _ _ _ 
4 | _ _ _ _ _ _ _ _ 
3 | _ _ P _ P _ _ _ 
2 | P P _ P _ P P P 
1 | R N B Q K B N R 
-------------------
  | A B C D E F G H 

Turn of: black
Succesful move
g8f6
8 | R _ B Q K B _ R 
7 | P P P P P P P P 
6 | _ _ N _ _ N _ _ 
5 | _ _ _ _ _ _ _ _ 
4 | _ _ _ _ _ _ _ _ 
3 | _ _ P _ P _ _ _ 
2 | P P _ P _ P P P 
1 | R N B Q K B N R 
-------------------
  | A B C D E F G H 

Turn of: white
Succesful move
f2f4
8 | R _ B Q K B _ R 
7 | P P P P P P P P 
6 | _ _ N _ _ N _ _ 
5 | _ _ _ _ _ _ _ _ 
4 | _ _ _ _ _ P _ _ 
3 | _ _ P _ P _ _ _ 
2 | P P _ P _ _ P P 
1 | R N B Q K B N R 
-------------------
  | A B C D E F G H 

Turn of: black
Succesful move
e7e5
8 | R _ B Q K B _ R 
7 | P P P P _ P P P 
6 | _ _ N _ _ N _ _ 
5 | _ _ _ _ P _ _ _ 
4 | _ _ _ _ _ P _ _ 
3 | _ _ P _ P _ _ _ 
2 | P P _ P _ _ P P 
1 | R N B Q K B N R 
-------------------
  | A B C D E F G H 

Turn of: white
Succesful move
g2g3
8 | R _ B Q K B _ R 
7 | P P P P _ P P P 
6 | _ _ N _ _ N _ _ 
5 | _ _ _ _ P _ _ _ 
4 | _ _ _ _ _ P _ _ 
3 | _ _ P _ P _ P _ 
2 | P P _ P _ _ _ P 
1 | R N B Q K B N R 
-------------------
  | A B C D E F G H 

Turn of: black
Succesful move
f8d6
8 | R _ B Q K _ _ R 
7 | P P P P _ P P P 
6 | _ _ N B _ N _ _ 
5 | _ _ _ _ P _ _ _ 
4 | _ _ _ _ _ P _ _ 
3 | _ _ P _ P _ P _ 
2 | P P _ P _ _ _ P 
1 | R N B Q K B N R 
-------------------
  | A B C D E F G H 

Turn of: white
Succesful move
a2a4
8 | R _ B Q K _ _ R 
7 | P P P P _ P P P 
6 | _ _ N B _ N _ _ 
5 | _ _ _ _ P _ _ _ 
4 | P _ _ _ _ P _ _ 
3 | _ _ P _ P _ P _ 
2 | _ P _ P _ _ _ P 
1 | R N B Q K B N R 
-------------------
  | A B C D E F G H 

Turn of: black
Succesful move
e8e7
8 | R _ B Q _ _ _ R 
7 | P P P P K P P P 
6 | _ _ N B _ N _ _ 
5 | _ _ _ _ P _ _ _ 
4 | P _ _ _ _ P _ _ 
3 | _ _ P _ P _ P _ 
2 | _ P _ P _ _ _ P 
1 | R N B Q K B N R 
-------------------
  | A B C D E F G H 

Turn of: white
Succesful move
f1h3
8 | R _ B Q _ _ _ R 
7 | P P P P K P P P 
6 | _ _ N B _ N _ _ 
5 | _ _ _ _ P _ _ _ 
4 | P _ _ _ _ P _ _ 
3 | _ _ P _ P _ P B 
2 | _ P _ P _ _ _ P 
1 | R N B Q K _ N R 
-------------------
  | A B C D E F G H 

Turn of: black
Succesful move
d8e8
8 | R _ B _ Q _ _ R 
7 | P P P P K P P P 
6 | _ _ N B _ N _ _ 
5 | _ _ _ _ P _ _ _ 
4 | P _ _ _ _ P _ _ 
3 | _ _ P _ P _ P B 
2 | _ P _ P _ _ _ P 
1 | R N B Q K _ N R 
-------------------
  | A B C D E F G H 

Turn of: white
Succesful move
g1e2
8 | R _ B _ Q _ _ R 
7 | P P P P K P P P 
6 | _ _ N B _ N _ _ 
5 | _ _ _ _ P _ _ _ 
4 | P _ _ _ _ P _ _ 
3 | _ _ P _ P _ P B 
2 | _ P _ P N _ _ P 
1 | R N B Q K _ _ R 
-------------------
  | A B C D E F G H 

Turn of: black
Succesful move
e5f4
8 | R _ B _ Q _ _ R 
7 | P P P P K P P P 
6 | _ _ N B _ N _ _ 
5 | _ _ _ _ _ _ _ _ 
4 | P _ _ _ _ P _ _ 
3 | _ _ P _ P _ P B 
2 | _ P _ P N _ _ P 
1 | R N B Q K _ _ R 
-------------------
  | A B C D E F G H 

We are playing as White
Move history:
c2c3
b8c6
e2e3
g8f6
f2f4
e7e5
g2g3
f8d6
a2a4
e8e7
f1h3
d8e8
g1e2
e5f4
8 | R _ B _ Q _ _ R 
7 | P P P P K P P P 
6 | _ _ N B _ N _ _ 
5 | _ _ _ _ _ _ _ _ 
4 | P _ _ _ _ P _ _ 
3 | _ _ P _ P _ P B 
2 | _ P _ P N _ _ P 
1 | R N B Q K _ _ R 
-------------------
  | A B C D E F G H 

It is white's turn to play.
AI's move: e2f4
Move written: e2f4
[32;1m[Game] [0mPlayer's error code: 0
[32;1m[Game] [0mChecking move validity...
[32;1m[Board] [0mInitializing board...
[32;1m[Board] [0mLoading history file `championship/lizzie-iii-bbd/history.csv`...
[32;1m[Board] [0mLoaded 14 move(s).
[32;1m[Board] [0mLoading move file `championship/lizzie-iii-bbd/move.csv`...
[32;1m[Board] [0mWhite player is playing e2 to f4.
[32;1m[Board] [0m[5;1mWhite Knight is taking Black Pawn.[0m
[32;1m[Board] [0m
[32;1m[Board] [0m    a b c d e f g h 
[32;1m[Board] [0m  -------------------
[32;1m[Board] [0m8 ||[30;1mr[0m| |[30;1mb[0m| |[30;1mQ[0m| |[7;1m [0m|[30;1mr[0m|| 8
[32;1m[Board] [0m  -------------------
[32;1m[Board] [0m7 ||[30;1mp[0m|[30;1mp[0m|[30;1mp[0m|[30;1mp[0m|[30;1mK[0m|[30;1mp[0m|[30;1mp[0m|[30;1mp[0m|| 7
[32;1m[Board] [0m  -------------------
[32;1m[Board] [0m6 ||[7;1m [0m| |[30;1mk[0m|[30;1mb[0m|[7;1m [0m|[30;1mk[0m|[7;1m [0m| || 6
[32;1m[Board] [0m  -------------------
[32;1m[Board] [0m5 || |[7;1m [0m| |[7;1m [0m| |[7;1m [0m| |[7;1m [0m|| 5
[32;1m[Board] [0m  -------------------
[32;1m[Board] [0m4 ||[0;1mp[0m| |[7;1m [0m| |[7;1m [0m|[0;1mk[0m|[7;1m [0m| || 4
[32;1m[Board] [0m  -------------------
[32;1m[Board] [0m3 || |[7;1m [0m|[0;1mp[0m|[7;1m [0m|[0;1mp[0m|[7;1m [0m|[0;1mp[0m|[0;1mb[0m|| 3
[32;1m[Board] [0m  -------------------
[32;1m[Board] [0m2 ||[7;1m [0m|[0;1mp[0m|[7;1m [0m|[0;1mp[0m|[7;1m [0m| |[7;1m [0m|[0;1mp[0m|| 2
[32;1m[Board] [0m  -------------------
[32;1m[Board] [0m1 ||[0;1mr[0m|[0;1mk[0m|[0;1mb[0m|[0;1mQ[0m|[0;1mK[0m|[7;1m [0m| |[0;1mr[0m|| 1
[32;1m[Board] [0m  -------------------
[32;1m[Board] [0m    a b c d e f g h
[32;1m[Board] [0m
[32;1m[Referee] [0mThis is the turn of the Black player...
info score 550 depth 1 nodes 38 time 0
info score 549 depth 2 nodes 717 time 5
info score 558 depth 3 nodes 3391 time 25
info score 506 depth 4 nodes 90557 time 527
info score 515 depth 5 nodes 339835 time 1837
info score 499 depth 6 nodes 2981067 time 14661
bestmove d6f4
[32;1m[Game] [0mPlayer's error code: 0
[32;1m[Game] [0mChecking move validity...
[32;1m[Board] [0mInitializing board...
[32;1m[Board] [0mLoading history file `championship/lizzie-iii-bbd/history.csv`...
[32;1m[Board] [0mLoaded 15 move(s).
[32;1m[Board] [0mLoading move file `championship/lizzie-iii-bbd/move.csv`...
[32;1m[Board] [0mBlack player is playing d6 to f4.
[32;1m[Board] [0m[5;1mBlack Bishop is taking White Knight.[0m
[32;1m[Board] [0m
[32;1m[Board] [0m    a b c d e f g h 
[32;1m[Board] [0m  -------------------
[32;1m[Board] [0m8 ||[30;1mr[0m| |[30;1mb[0m| |[30;1mQ[0m| |[7;1m [0m|[30;1mr[0m|| 8
[32;1m[Board] [0m  -------------------
[32;1m[Board] [0m7 ||[30;1mp[0m|[30;1mp[0m|[30;1mp[0m|[30;1mp[0m|[30;1mK[0m|[30;1mp[0m|[30;1mp[0m|[30;1mp[0m|| 7
[32;1m[Board] [0m  -------------------
[32;1m[Board] [0m6 ||[7;1m [0m| |[30;1mk[0m| |[7;1m [0m|[30;1mk[0m|[7;1m [0m| || 6
[32;1m[Board] [0m  -------------------
[32;1m[Board] [0m5 || |[7;1m [0m| |[7;1m [0m| |[7;1m [0m| |[7;1m [0m|| 5
[32;1m[Board] [0m  -------------------
[32;1m[Board] [0m4 ||[0;1mp[0m| |[7;1m [0m| |[7;1m [0m|[30;1mb[0m|[7;1m [0m| || 4
[32;1m[Board] [0m  -------------------
[32;1m[Board] [0m3 || |[7;1m [0m|[0;1mp[0m|[7;1m [0m|[0;1mp[0m|[7;1m [0m|[0;1mp[0m|[0;1mb[0m|| 3
[32;1m[Board] [0m  -------------------
[32;1m[Board] [0m2 ||[7;1m [0m|[0;1mp[0m|[7;1m [0m|[0;1mp[0m|[7;1m [0m| |[7;1m [0m|[0;1mp[0m|| 2
[32;1m[Board] [0m  -------------------
[32;1m[Board] [0m1 ||[0;1mr[0m|[0;1mk[0m|[0;1mb[0m|[0;1mQ[0m|[0;1mK[0m|[7;1m [0m| |[0;1mr[0m|| 1
[32;1m[Board] [0m  -------------------
[32;1m[Board] [0m    a b c d e f g h
[32;1m[Board] [0m
[32;1m[Referee] [0mThis is the turn of the White player...
Input file: championship/lizzie-iii-bbd/history.csv
Output file: championship/lizzie-iii-bbd/move.csv
Turn of: white
Succesful move
c2c3
8 | R N B Q K B N R 
7 | P P P P P P P P 
6 | _ _ _ _ _ _ _ _ 
5 | _ _ _ _ _ _ _ _ 
4 | _ _ _ _ _ _ _ _ 
3 | _ _ P _ _ _ _ _ 
2 | P P _ P P P P P 
1 | R N B Q K B N R 
-------------------
  | A B C D E F G H 

Turn of: black
Succesful move
b8c6
8 | R _ B Q K B N R 
7 | P P P P P P P P 
6 | _ _ N _ _ _ _ _ 
5 | _ _ _ _ _ _ _ _ 
4 | _ _ _ _ _ _ _ _ 
3 | _ _ P _ _ _ _ _ 
2 | P P _ P P P P P 
1 | R N B Q K B N R 
-------------------
  | A B C D E F G H 

Turn of: white
Succesful move
e2e3
8 | R _ B Q K B N R 
7 | P P P P P P P P 
6 | _ _ N _ _ _ _ _ 
5 | _ _ _ _ _ _ _ _ 
4 | _ _ _ _ _ _ _ _ 
3 | _ _ P _ P _ _ _ 
2 | P P _ P _ P P P 
1 | R N B Q K B N R 
-------------------
  | A B C D E F G H 

Turn of: black
Succesful move
g8f6
8 | R _ B Q K B _ R 
7 | P P P P P P P P 
6 | _ _ N _ _ N _ _ 
5 | _ _ _ _ _ _ _ _ 
4 | _ _ _ _ _ _ _ _ 
3 | _ _ P _ P _ _ _ 
2 | P P _ P _ P P P 
1 | R N B Q K B N R 
-------------------
  | A B C D E F G H 

Turn of: white
Succesful move
f2f4
8 | R _ B Q K B _ R 
7 | P P P P P P P P 
6 | _ _ N _ _ N _ _ 
5 | _ _ _ _ _ _ _ _ 
4 | _ _ _ _ _ P _ _ 
3 | _ _ P _ P _ _ _ 
2 | P P _ P _ _ P P 
1 | R N B Q K B N R 
-------------------
  | A B C D E F G H 

Turn of: black
Succesful move
e7e5
8 | R _ B Q K B _ R 
7 | P P P P _ P P P 
6 | _ _ N _ _ N _ _ 
5 | _ _ _ _ P _ _ _ 
4 | _ _ _ _ _ P _ _ 
3 | _ _ P _ P _ _ _ 
2 | P P _ P _ _ P P 
1 | R N B Q K B N R 
-------------------
  | A B C D E F G H 

Turn of: white
Succesful move
g2g3
8 | R _ B Q K B _ R 
7 | P P P P _ P P P 
6 | _ _ N _ _ N _ _ 
5 | _ _ _ _ P _ _ _ 
4 | _ _ _ _ _ P _ _ 
3 | _ _ P _ P _ P _ 
2 | P P _ P _ _ _ P 
1 | R N B Q K B N R 
-------------------
  | A B C D E F G H 

Turn of: black
Succesful move
f8d6
8 | R _ B Q K _ _ R 
7 | P P P P _ P P P 
6 | _ _ N B _ N _ _ 
5 | _ _ _ _ P _ _ _ 
4 | _ _ _ _ _ P _ _ 
3 | _ _ P _ P _ P _ 
2 | P P _ P _ _ _ P 
1 | R N B Q K B N R 
-------------------
  | A B C D E F G H 

Turn of: white
Succesful move
a2a4
8 | R _ B Q K _ _ R 
7 | P P P P _ P P P 
6 | _ _ N B _ N _ _ 
5 | _ _ _ _ P _ _ _ 
4 | P _ _ _ _ P _ _ 
3 | _ _ P _ P _ P _ 
2 | _ P _ P _ _ _ P 
1 | R N B Q K B N R 
-------------------
  | A B C D E F G H 

Turn of: black
Succesful move
e8e7
8 | R _ B Q _ _ _ R 
7 | P P P P K P P P 
6 | _ _ N B _ N _ _ 
5 | _ _ _ _ P _ _ _ 
4 | P _ _ _ _ P _ _ 
3 | _ _ P _ P _ P _ 
2 | _ P _ P _ _ _ P 
1 | R N B Q K B N R 
-------------------
  | A B C D E F G H 

Turn of: white
Succesful move
f1h3
8 | R _ B Q _ _ _ R 
7 | P P P P K P P P 
6 | _ _ N B _ N _ _ 
5 | _ _ _ _ P _ _ _ 
4 | P _ _ _ _ P _ _ 
3 | _ _ P _ P _ P B 
2 | _ P _ P _ _ _ P 
1 | R N B Q K _ N R 
-------------------
  | A B C D E F G H 

Turn of: black
Succesful move
d8e8
8 | R _ B _ Q _ _ R 
7 | P P P P K P P P 
6 | _ _ N B _ N _ _ 
5 | _ _ _ _ P _ _ _ 
4 | P _ _ _ _ P _ _ 
3 | _ _ P _ P _ P B 
2 | _ P _ P _ _ _ P 
1 | R N B Q K _ N R 
-------------------
  | A B C D E F G H 

Turn of: white
Succesful move
g1e2
8 | R _ B _ Q _ _ R 
7 | P P P P K P P P 
6 | _ _ N B _ N _ _ 
5 | _ _ _ _ P _ _ _ 
4 | P _ _ _ _ P _ _ 
3 | _ _ P _ P _ P B 
2 | _ P _ P N _ _ P 
1 | R N B Q K _ _ R 
-------------------
  | A B C D E F G H 

Turn of: black
Succesful move
e5f4
8 | R _ B _ Q _ _ R 
7 | P P P P K P P P 
6 | _ _ N B _ N _ _ 
5 | _ _ _ _ _ _ _ _ 
4 | P _ _ _ _ P _ _ 
3 | _ _ P _ P _ P B 
2 | _ P _ P N _ _ P 
1 | R N B Q K _ _ R 
-------------------
  | A B C D E F G H 

Turn of: white
Succesful move
e2f4
8 | R _ B _ Q _ _ R 
7 | P P P P K P P P 
6 | _ _ N B _ N _ _ 
5 | _ _ _ _ _ _ _ _ 
4 | P _ _ _ _ N _ _ 
3 | _ _ P _ P _ P B 
2 | _ P _ P _ _ _ P 
1 | R N B Q K _ _ R 
-------------------
  | A B C D E F G H 

Turn of: black
Succesful move
d6f4
8 | R _ B _ Q _ _ R 
7 | P P P P K P P P 
6 | _ _ N _ _ N _ _ 
5 | _ _ _ _ _ _ _ _ 
4 | P _ _ _ _ B _ _ 
3 | _ _ P _ P _ P B 
2 | _ P _ P _ _ _ P 
1 | R N B Q K _ _ R 
-------------------
  | A B C D E F G H 

We are playing as White
Move history:
c2c3
b8c6
e2e3
g8f6
f2f4
e7e5
g2g3
f8d6
a2a4
e8e7
f1h3
d8e8
g1e2
e5f4
e2f4
d6f4
8 | R _ B _ Q _ _ R 
7 | P P P P K P P P 
6 | _ _ N _ _ N _ _ 
5 | _ _ _ _ _ _ _ _ 
4 | P _ _ _ _ B _ _ 
3 | _ _ P _ P _ P B 
2 | _ P _ P _ _ _ P 
1 | R N B Q K _ _ R 
-------------------
  | A B C D E F G H 

It is white's turn to play.
AI's move: d2d3
Move written: d2d3
[32;1m[Game] [0mPlayer's error code: 0
[32;1m[Game] [0mChecking move validity...
[32;1m[Board] [0mInitializing board...
[32;1m[Board] [0mLoading history file `championship/lizzie-iii-bbd/history.csv`...
[32;1m[Board] [0mLoaded 16 move(s).
[32;1m[Board] [0mLoading move file `championship/lizzie-iii-bbd/move.csv`...
[32;1m[Board] [0mWhite player is playing d2 to d3.
[32;1m[Board] [0m
[32;1m[Board] [0m    a b c d e f g h 
[32;1m[Board] [0m  -------------------
[32;1m[Board] [0m8 ||[30;1mr[0m| |[30;1mb[0m| |[30;1mQ[0m| |[7;1m [0m|[30;1mr[0m|| 8
[32;1m[Board] [0m  -------------------
[32;1m[Board] [0m7 ||[30;1mp[0m|[30;1mp[0m|[30;1mp[0m|[30;1mp[0m|[30;1mK[0m|[30;1mp[0m|[30;1mp[0m|[30;1mp[0m|| 7
[32;1m[Board] [0m  -------------------
[32;1m[Board] [0m6 ||[7;1m [0m| |[30;1mk[0m| |[7;1m [0m|[30;1mk[0m|[7;1m [0m| || 6
[32;1m[Board] [0m  -------------------
[32;1m[Board] [0m5 || |[7;1m [0m| |[7;1m [0m| |[7;1m [0m| |[7;1m [0m|| 5
[32;1m[Board] [0m  -------------------
[32;1m[Board] [0m4 ||[0;1mp[0m| |[7;1m [0m| |[7;1m [0m|[30;1mb[0m|[7;1m [0m| || 4
[32;1m[Board] [0m  -------------------
[32;1m[Board] [0m3 || |[7;1m [0m|[0;1mp[0m|[0;1mp[0m|[0;1mp[0m|[7;1m [0m|[0;1mp[0m|[0;1mb[0m|| 3
[32;1m[Board] [0m  -------------------
[32;1m[Board] [0m2 ||[7;1m [0m|[0;1mp[0m|[7;1m [0m| |[7;1m [0m| |[7;1m [0m|[0;1mp[0m|| 2
[32;1m[Board] [0m  -------------------
[32;1m[Board] [0m1 ||[0;1mr[0m|[0;1mk[0m|[0;1mb[0m|[0;1mQ[0m|[0;1mK[0m|[7;1m [0m| |[0;1mr[0m|| 1
[32;1m[Board] [0m  -------------------
[32;1m[Board] [0m    a b c d e f g h
[32;1m[Board] [0m
[32;1m[Referee] [0mThis is the turn of the Black player...
info score 1000 depth 1 nodes 126 time 1
info score 903 depth 2 nodes 463 time 3
info score 912 depth 3 nodes 4786 time 25
info score 845 depth 4 nodes 29779 time 153
info score 885 depth 5 nodes 246230 time 1257
info score 797 depth 6 nodes 1762736 time 9883
bestmove f4d6
[32;1m[Game] [0mPlayer's error code: 0
[32;1m[Game] [0mChecking move validity...
[32;1m[Board] [0mInitializing board...
[32;1m[Board] [0mLoading history file `championship/lizzie-iii-bbd/history.csv`...
[32;1m[Board] [0mLoaded 17 move(s).
[32;1m[Board] [0mLoading move file `championship/lizzie-iii-bbd/move.csv`...
[32;1m[Board] [0mBlack player is playing f4 to d6.
[32;1m[Board] [0m
[32;1m[Board] [0m    a b c d e f g h 
[32;1m[Board] [0m  -------------------
[32;1m[Board] [0m8 ||[30;1mr[0m| |[30;1mb[0m| |[30;1mQ[0m| |[7;1m [0m|[30;1mr[0m|| 8
[32;1m[Board] [0m  -------------------
[32;1m[Board] [0m7 ||[30;1mp[0m|[30;1mp[0m|[30;1mp[0m|[30;1mp[0m|[30;1mK[0m|[30;1mp[0m|[30;1mp[0m|[30;1mp[0m|| 7
[32;1m[Board] [0m  -------------------
[32;1m[Board] [0m6 ||[7;1m [0m| |[30;1mk[0m|[30;1mb[0m|[7;1m [0m|[30;1mk[0m|[7;1m [0m| || 6
[32;1m[Board] [0m  -------------------
[32;1m[Board] [0m5 || |[7;1m [0m| |[7;1m [0m| |[7;1m [0m| |[7;1m [0m|| 5
[32;1m[Board] [0m  -------------------
[32;1m[Board] [0m4 ||[0;1mp[0m| |[7;1m [0m| |[7;1m [0m| |[7;1m [0m| || 4
[32;1m[Board] [0m  -------------------
[32;1m[Board] [0m3 || |[7;1m [0m|[0;1mp[0m|[0;1mp[0m|[0;1mp[0m|[7;1m [0m|[0;1mp[0m|[0;1mb[0m|| 3
[32;1m[Board] [0m  -------------------
[32;1m[Board] [0m2 ||[7;1m [0m|[0;1mp[0m|[7;1m [0m| |[7;1m [0m| |[7;1m [0m|[0;1mp[0m|| 2
[32;1m[Board] [0m  -------------------
[32;1m[Board] [0m1 ||[0;1mr[0m|[0;1mk[0m|[0;1mb[0m|[0;1mQ[0m|[0;1mK[0m|[7;1m [0m| |[0;1mr[0m|| 1
[32;1m[Board] [0m  -------------------
[32;1m[Board] [0m    a b c d e f g h
[32;1m[Board] [0m
[32;1m[Referee] [0mThis is the turn of the White player...
Input file: championship/lizzie-iii-bbd/history.csv
Output file: championship/lizzie-iii-bbd/move.csv
Turn of: white
Succesful move
c2c3
8 | R N B Q K B N R 
7 | P P P P P P P P 
6 | _ _ _ _ _ _ _ _ 
5 | _ _ _ _ _ _ _ _ 
4 | _ _ _ _ _ _ _ _ 
3 | _ _ P _ _ _ _ _ 
2 | P P _ P P P P P 
1 | R N B Q K B N R 
-------------------
  | A B C D E F G H 

Turn of: black
Succesful move
b8c6
8 | R _ B Q K B N R 
7 | P P P P P P P P 
6 | _ _ N _ _ _ _ _ 
5 | _ _ _ _ _ _ _ _ 
4 | _ _ _ _ _ _ _ _ 
3 | _ _ P _ _ _ _ _ 
2 | P P _ P P P P P 
1 | R N B Q K B N R 
-------------------
  | A B C D E F G H 

Turn of: white
Succesful move
e2e3
8 | R _ B Q K B N R 
7 | P P P P P P P P 
6 | _ _ N _ _ _ _ _ 
5 | _ _ _ _ _ _ _ _ 
4 | _ _ _ _ _ _ _ _ 
3 | _ _ P _ P _ _ _ 
2 | P P _ P _ P P P 
1 | R N B Q K B N R 
-------------------
  | A B C D E F G H 

Turn of: black
Succesful move
g8f6
8 | R _ B Q K B _ R 
7 | P P P P P P P P 
6 | _ _ N _ _ N _ _ 
5 | _ _ _ _ _ _ _ _ 
4 | _ _ _ _ _ _ _ _ 
3 | _ _ P _ P _ _ _ 
2 | P P _ P _ P P P 
1 | R N B Q K B N R 
-------------------
  | A B C D E F G H 

Turn of: white
Succesful move
f2f4
8 | R _ B Q K B _ R 
7 | P P P P P P P P 
6 | _ _ N _ _ N _ _ 
5 | _ _ _ _ _ _ _ _ 
4 | _ _ _ _ _ P _ _ 
3 | _ _ P _ P _ _ _ 
2 | P P _ P _ _ P P 
1 | R N B Q K B N R 
-------------------
  | A B C D E F G H 

Turn of: black
Succesful move
e7e5
8 | R _ B Q K B _ R 
7 | P P P P _ P P P 
6 | _ _ N _ _ N _ _ 
5 | _ _ _ _ P _ _ _ 
4 | _ _ _ _ _ P _ _ 
3 | _ _ P _ P _ _ _ 
2 | P P _ P _ _ P P 
1 | R N B Q K B N R 
-------------------
  | A B C D E F G H 

Turn of: white
Succesful move
g2g3
8 | R _ B Q K B _ R 
7 | P P P P _ P P P 
6 | _ _ N _ _ N _ _ 
5 | _ _ _ _ P _ _ _ 
4 | _ _ _ _ _ P _ _ 
3 | _ _ P _ P _ P _ 
2 | P P _ P _ _ _ P 
1 | R N B Q K B N R 
-------------------
  | A B C D E F G H 

Turn of: black
Succesful move
f8d6
8 | R _ B Q K _ _ R 
7 | P P P P _ P P P 
6 | _ _ N B _ N _ _ 
5 | _ _ _ _ P _ _ _ 
4 | _ _ _ _ _ P _ _ 
3 | _ _ P _ P _ P _ 
2 | P P _ P _ _ _ P 
1 | R N B Q K B N R 
-------------------
  | A B C D E F G H 

Turn of: white
Succesful move
a2a4
8 | R _ B Q K _ _ R 
7 | P P P P _ P P P 
6 | _ _ N B _ N _ _ 
5 | _ _ _ _ P _ _ _ 
4 | P _ _ _ _ P _ _ 
3 | _ _ P _ P _ P _ 
2 | _ P _ P _ _ _ P 
1 | R N B Q K B N R 
-------------------
  | A B C D E F G H 

Turn of: black
Succesful move
e8e7
8 | R _ B Q _ _ _ R 
7 | P P P P K P P P 
6 | _ _ N B _ N _ _ 
5 | _ _ _ _ P _ _ _ 
4 | P _ _ _ _ P _ _ 
3 | _ _ P _ P _ P _ 
2 | _ P _ P _ _ _ P 
1 | R N B Q K B N R 
-------------------
  | A B C D E F G H 

Turn of: white
Succesful move
f1h3
8 | R _ B Q _ _ _ R 
7 | P P P P K P P P 
6 | _ _ N B _ N _ _ 
5 | _ _ _ _ P _ _ _ 
4 | P _ _ _ _ P _ _ 
3 | _ _ P _ P _ P B 
2 | _ P _ P _ _ _ P 
1 | R N B Q K _ N R 
-------------------
  | A B C D E F G H 

Turn of: black
Succesful move
d8e8
8 | R _ B _ Q _ _ R 
7 | P P P P K P P P 
6 | _ _ N B _ N _ _ 
5 | _ _ _ _ P _ _ _ 
4 | P _ _ _ _ P _ _ 
3 | _ _ P _ P _ P B 
2 | _ P _ P _ _ _ P 
1 | R N B Q K _ N R 
-------------------
  | A B C D E F G H 

Turn of: white
Succesful move
g1e2
8 | R _ B _ Q _ _ R 
7 | P P P P K P P P 
6 | _ _ N B _ N _ _ 
5 | _ _ _ _ P _ _ _ 
4 | P _ _ _ _ P _ _ 
3 | _ _ P _ P _ P B 
2 | _ P _ P N _ _ P 
1 | R N B Q K _ _ R 
-------------------
  | A B C D E F G H 

Turn of: black
Succesful move
e5f4
8 | R _ B _ Q _ _ R 
7 | P P P P K P P P 
6 | _ _ N B _ N _ _ 
5 | _ _ _ _ _ _ _ _ 
4 | P _ _ _ _ P _ _ 
3 | _ _ P _ P _ P B 
2 | _ P _ P N _ _ P 
1 | R N B Q K _ _ R 
-------------------
  | A B C D E F G H 

Turn of: white
Succesful move
e2f4
8 | R _ B _ Q _ _ R 
7 | P P P P K P P P 
6 | _ _ N B _ N _ _ 
5 | _ _ _ _ _ _ _ _ 
4 | P _ _ _ _ N _ _ 
3 | _ _ P _ P _ P B 
2 | _ P _ P _ _ _ P 
1 | R N B Q K _ _ R 
-------------------
  | A B C D E F G H 

Turn of: black
Succesful move
d6f4
8 | R _ B _ Q _ _ R 
7 | P P P P K P P P 
6 | _ _ N _ _ N _ _ 
5 | _ _ _ _ _ _ _ _ 
4 | P _ _ _ _ B _ _ 
3 | _ _ P _ P _ P B 
2 | _ P _ P _ _ _ P 
1 | R N B Q K _ _ R 
-------------------
  | A B C D E F G H 

Turn of: white
Succesful move
d2d3
8 | R _ B _ Q _ _ R 
7 | P P P P K P P P 
6 | _ _ N _ _ N _ _ 
5 | _ _ _ _ _ _ _ _ 
4 | P _ _ _ _ B _ _ 
3 | _ _ P P P _ P B 
2 | _ P _ _ _ _ _ P 
1 | R N B Q K _ _ R 
-------------------
  | A B C D E F G H 

Turn of: black
Succesful move
f4d6
8 | R _ B _ Q _ _ R 
7 | P P P P K P P P 
6 | _ _ N B _ N _ _ 
5 | _ _ _ _ _ _ _ _ 
4 | P _ _ _ _ _ _ _ 
3 | _ _ P P P _ P B 
2 | _ P _ _ _ _ _ P 
1 | R N B Q K _ _ R 
-------------------
  | A B C D E F G H 

We are playing as White
Move history:
c2c3
b8c6
e2e3
g8f6
f2f4
e7e5
g2g3
f8d6
a2a4
e8e7
f1h3
d8e8
g1e2
e5f4
e2f4
d6f4
d2d3
f4d6
8 | R _ B _ Q _ _ R 
7 | P P P P K P P P 
6 | _ _ N B _ N _ _ 
5 | _ _ _ _ _ _ _ _ 
4 | P _ _ _ _ _ _ _ 
3 | _ _ P P P _ P B 
2 | _ P _ _ _ _ _ P 
1 | R N B Q K _ _ R 
-------------------
  | A B C D E F G H 

It is white's turn to play.
AI's move: h3d7
Move written: h3d7
[32;1m[Game] [0mPlayer's error code: 0
[32;1m[Game] [0mChecking move validity...
[32;1m[Board] [0mInitializing board...
[32;1m[Board] [0mLoading history file `championship/lizzie-iii-bbd/history.csv`...
[32;1m[Board] [0mLoaded 18 move(s).
[32;1m[Board] [0mLoading move file `championship/lizzie-iii-bbd/move.csv`...
[32;1m[Board] [0mWhite player is playing h3 to d7.
[32;1m[Board] [0m[5;1mWhite Bishop is taking Black Pawn.[0m
[32;1m[Board] [0m
[32;1m[Board] [0m    a b c d e f g h 
[32;1m[Board] [0m  -------------------
[32;1m[Board] [0m8 ||[30;1mr[0m| |[30;1mb[0m| |[30;1mQ[0m| |[7;1m [0m|[30;1mr[0m|| 8
[32;1m[Board] [0m  -------------------
[32;1m[Board] [0m7 ||[30;1mp[0m|[30;1mp[0m|[30;1mp[0m|[0;1mb[0m|[30;1mK[0m|[30;1mp[0m|[30;1mp[0m|[30;1mp[0m|| 7
[32;1m[Board] [0m  -------------------
[32;1m[Board] [0m6 ||[7;1m [0m| |[30;1mk[0m|[30;1mb[0m|[7;1m [0m|[30;1mk[0m|[7;1m [0m| || 6
[32;1m[Board] [0m  -------------------
[32;1m[Board] [0m5 || |[7;1m [0m| |[7;1m [0m| |[7;1m [0m| |[7;1m [0m|| 5
[32;1m[Board] [0m  -------------------
[32;1m[Board] [0m4 ||[0;1mp[0m| |[7;1m [0m| |[7;1m [0m| |[7;1m [0m| || 4
[32;1m[Board] [0m  -------------------
[32;1m[Board] [0m3 || |[7;1m [0m|[0;1mp[0m|[0;1mp[0m|[0;1mp[0m|[7;1m [0m|[0;1mp[0m|[7;1m [0m|| 3
[32;1m[Board] [0m  -------------------
[32;1m[Board] [0m2 ||[7;1m [0m|[0;1mp[0m|[7;1m [0m| |[7;1m [0m| |[7;1m [0m|[0;1mp[0m|| 2
[32;1m[Board] [0m  -------------------
[32;1m[Board] [0m1 ||[0;1mr[0m|[0;1mk[0m|[0;1mb[0m|[0;1mQ[0m|[0;1mK[0m|[7;1m [0m| |[0;1mr[0m|| 1
[32;1m[Board] [0m  -------------------
[32;1m[Board] [0m    a b c d e f g h
[32;1m[Board] [0m
[32;1m[Referee] [0mThis is the turn of the Black player...
info score 1231 depth 1 nodes 38 time 0
info score 1113 depth 2 nodes 396 time 2
info score 1161 depth 3 nodes 2972 time 15
info score 1076 depth 4 nodes 26133 time 131
info score 1096 depth 5 nodes 304100 time 1300
info score 1116 depth 6 nodes 1858882 time 9728
bestmove c8d7
[32;1m[Game] [0mPlayer's error code: 0
[32;1m[Game] [0mChecking move validity...
[32;1m[Board] [0mInitializing board...
[32;1m[Board] [0mLoading history file `championship/lizzie-iii-bbd/history.csv`...
[32;1m[Board] [0mLoaded 19 move(s).
[32;1m[Board] [0mLoading move file `championship/lizzie-iii-bbd/move.csv`...
[32;1m[Board] [0mBlack player is playing c8 to d7.
[32;1m[Board] [0m[5;1mBlack Bishop is taking White Bishop.[0m
[32;1m[Board] [0m
[32;1m[Board] [0m    a b c d e f g h 
[32;1m[Board] [0m  -------------------
[32;1m[Board] [0m8 ||[30;1mr[0m| |[7;1m [0m| |[30;1mQ[0m| |[7;1m [0m|[30;1mr[0m|| 8
[32;1m[Board] [0m  -------------------
[32;1m[Board] [0m7 ||[30;1mp[0m|[30;1mp[0m|[30;1mp[0m|[30;1mb[0m|[30;1mK[0m|[30;1mp[0m|[30;1mp[0m|[30;1mp[0m|| 7
[32;1m[Board] [0m  -------------------
[32;1m[Board] [0m6 ||[7;1m [0m| |[30;1mk[0m|[30;1mb[0m|[7;1m [0m|[30;1mk[0m|[7;1m [0m| || 6
[32;1m[Board] [0m  -------------------
[32;1m[Board] [0m5 || |[7;1m [0m| |[7;1m [0m| |[7;1m [0m| |[7;1m [0m|| 5
[32;1m[Board] [0m  -------------------
[32;1m[Board] [0m4 ||[0;1mp[0m| |[7;1m [0m| |[7;1m [0m| |[7;1m [0m| || 4
[32;1m[Board] [0m  -------------------
[32;1m[Board] [0m3 || |[7;1m [0m|[0;1mp[0m|[0;1mp[0m|[0;1mp[0m|[7;1m [0m|[0;1mp[0m|[7;1m [0m|| 3
[32;1m[Board] [0m  -------------------
[32;1m[Board] [0m2 ||[7;1m [0m|[0;1mp[0m|[7;1m [0m| |[7;1m [0m| |[7;1m [0m|[0;1mp[0m|| 2
[32;1m[Board] [0m  -------------------
[32;1m[Board] [0m1 ||[0;1mr[0m|[0;1mk[0m|[0;1mb[0m|[0;1mQ[0m|[0;1mK[0m|[7;1m [0m| |[0;1mr[0m|| 1
[32;1m[Board] [0m  -------------------
[32;1m[Board] [0m    a b c d e f g h
[32;1m[Board] [0m
[32;1m[Referee] [0mThis is the turn of the White player...
Input file: championship/lizzie-iii-bbd/history.csv
Output file: championship/lizzie-iii-bbd/move.csv
Turn of: white
Succesful move
c2c3
8 | R N B Q K B N R 
7 | P P P P P P P P 
6 | _ _ _ _ _ _ _ _ 
5 | _ _ _ _ _ _ _ _ 
4 | _ _ _ _ _ _ _ _ 
3 | _ _ P _ _ _ _ _ 
2 | P P _ P P P P P 
1 | R N B Q K B N R 
-------------------
  | A B C D E F G H 

Turn of: black
Succesful move
b8c6
8 | R _ B Q K B N R 
7 | P P P P P P P P 
6 | _ _ N _ _ _ _ _ 
5 | _ _ _ _ _ _ _ _ 
4 | _ _ _ _ _ _ _ _ 
3 | _ _ P _ _ _ _ _ 
2 | P P _ P P P P P 
1 | R N B Q K B N R 
-------------------
  | A B C D E F G H 

Turn of: white
Succesful move
e2e3
8 | R _ B Q K B N R 
7 | P P P P P P P P 
6 | _ _ N _ _ _ _ _ 
5 | _ _ _ _ _ _ _ _ 
4 | _ _ _ _ _ _ _ _ 
3 | _ _ P _ P _ _ _ 
2 | P P _ P _ P P P 
1 | R N B Q K B N R 
-------------------
  | A B C D E F G H 

Turn of: black
Succesful move
g8f6
8 | R _ B Q K B _ R 
7 | P P P P P P P P 
6 | _ _ N _ _ N _ _ 
5 | _ _ _ _ _ _ _ _ 
4 | _ _ _ _ _ _ _ _ 
3 | _ _ P _ P _ _ _ 
2 | P P _ P _ P P P 
1 | R N B Q K B N R 
-------------------
  | A B C D E F G H 

Turn of: white
Succesful move
f2f4
8 | R _ B Q K B _ R 
7 | P P P P P P P P 
6 | _ _ N _ _ N _ _ 
5 | _ _ _ _ _ _ _ _ 
4 | _ _ _ _ _ P _ _ 
3 | _ _ P _ P _ _ _ 
2 | P P _ P _ _ P P 
1 | R N B Q K B N R 
-------------------
  | A B C D E F G H 

Turn of: black
Succesful move
e7e5
8 | R _ B Q K B _ R 
7 | P P P P _ P P P 
6 | _ _ N _ _ N _ _ 
5 | _ _ _ _ P _ _ _ 
4 | _ _ _ _ _ P _ _ 
3 | _ _ P _ P _ _ _ 
2 | P P _ P _ _ P P 
1 | R N B Q K B N R 
-------------------
  | A B C D E F G H 

Turn of: white
Succesful move
g2g3
8 | R _ B Q K B _ R 
7 | P P P P _ P P P 
6 | _ _ N _ _ N _ _ 
5 | _ _ _ _ P _ _ _ 
4 | _ _ _ _ _ P _ _ 
3 | _ _ P _ P _ P _ 
2 | P P _ P _ _ _ P 
1 | R N B Q K B N R 
-------------------
  | A B C D E F G H 

Turn of: black
Succesful move
f8d6
8 | R _ B Q K _ _ R 
7 | P P P P _ P P P 
6 | _ _ N B _ N _ _ 
5 | _ _ _ _ P _ _ _ 
4 | _ _ _ _ _ P _ _ 
3 | _ _ P _ P _ P _ 
2 | P P _ P _ _ _ P 
1 | R N B Q K B N R 
-------------------
  | A B C D E F G H 

Turn of: white
Succesful move
a2a4
8 | R _ B Q K _ _ R 
7 | P P P P _ P P P 
6 | _ _ N B _ N _ _ 
5 | _ _ _ _ P _ _ _ 
4 | P _ _ _ _ P _ _ 
3 | _ _ P _ P _ P _ 
2 | _ P _ P _ _ _ P 
1 | R N B Q K B N R 
-------------------
  | A B C D E F G H 

Turn of: black
Succesful move
e8e7
8 | R _ B Q _ _ _ R 
7 | P P P P K P P P 
6 | _ _ N B _ N _ _ 
5 | _ _ _ _ P _ _ _ 
4 | P _ _ _ _ P _ _ 
3 | _ _ P _ P _ P _ 
2 | _ P _ P _ _ _ P 
1 | R N B Q K B N R 
-------------------
  | A B C D E F G H 

Turn of: white
Succesful move
f1h3
8 | R _ B Q _ _ _ R 
7 | P P P P K P P P 
6 | _ _ N B _ N _ _ 
5 | _ _ _ _ P _ _ _ 
4 | P _ _ _ _ P _ _ 
3 | _ _ P _ P _ P B 
2 | _ P _ P _ _ _ P 
1 | R N B Q K _ N R 
-------------------
  | A B C D E F G H 

Turn of: black
Succesful move
d8e8
8 | R _ B _ Q _ _ R 
7 | P P P P K P P P 
6 | _ _ N B _ N _ _ 
5 | _ _ _ _ P _ _ _ 
4 | P _ _ _ _ P _ _ 
3 | _ _ P _ P _ P B 
2 | _ P _ P _ _ _ P 
1 | R N B Q K _ N R 
-------------------
  | A B C D E F G H 

Turn of: white
Succesful move
g1e2
8 | R _ B _ Q _ _ R 
7 | P P P P K P P P 
6 | _ _ N B _ N _ _ 
5 | _ _ _ _ P _ _ _ 
4 | P _ _ _ _ P _ _ 
3 | _ _ P _ P _ P B 
2 | _ P _ P N _ _ P 
1 | R N B Q K _ _ R 
-------------------
  | A B C D E F G H 

Turn of: black
Succesful move
e5f4
8 | R _ B _ Q _ _ R 
7 | P P P P K P P P 
6 | _ _ N B _ N _ _ 
5 | _ _ _ _ _ _ _ _ 
4 | P _ _ _ _ P _ _ 
3 | _ _ P _ P _ P B 
2 | _ P _ P N _ _ P 
1 | R N B Q K _ _ R 
-------------------
  | A B C D E F G H 

Turn of: white
Succesful move
e2f4
8 | R _ B _ Q _ _ R 
7 | P P P P K P P P 
6 | _ _ N B _ N _ _ 
5 | _ _ _ _ _ _ _ _ 
4 | P _ _ _ _ N _ _ 
3 | _ _ P _ P _ P B 
2 | _ P _ P _ _ _ P 
1 | R N B Q K _ _ R 
-------------------
  | A B C D E F G H 

Turn of: black
Succesful move
d6f4
8 | R _ B _ Q _ _ R 
7 | P P P P K P P P 
6 | _ _ N _ _ N _ _ 
5 | _ _ _ _ _ _ _ _ 
4 | P _ _ _ _ B _ _ 
3 | _ _ P _ P _ P B 
2 | _ P _ P _ _ _ P 
1 | R N B Q K _ _ R 
-------------------
  | A B C D E F G H 

Turn of: white
Succesful move
d2d3
8 | R _ B _ Q _ _ R 
7 | P P P P K P P P 
6 | _ _ N _ _ N _ _ 
5 | _ _ _ _ _ _ _ _ 
4 | P _ _ _ _ B _ _ 
3 | _ _ P P P _ P B 
2 | _ P _ _ _ _ _ P 
1 | R N B Q K _ _ R 
-------------------
  | A B C D E F G H 

Turn of: black
Succesful move
f4d6
8 | R _ B _ Q _ _ R 
7 | P P P P K P P P 
6 | _ _ N B _ N _ _ 
5 | _ _ _ _ _ _ _ _ 
4 | P _ _ _ _ _ _ _ 
3 | _ _ P P P _ P B 
2 | _ P _ _ _ _ _ P 
1 | R N B Q K _ _ R 
-------------------
  | A B C D E F G H 

Turn of: white
Succesful move
h3d7
8 | R _ B _ Q _ _ R 
7 | P P P B K P P P 
6 | _ _ N B _ N _ _ 
5 | _ _ _ _ _ _ _ _ 
4 | P _ _ _ _ _ _ _ 
3 | _ _ P P P _ P _ 
2 | _ P _ _ _ _ _ P 
1 | R N B Q K _ _ R 
-------------------
  | A B C D E F G H 

Turn of: black
Succesful move
c8d7
8 | R _ _ _ Q _ _ R 
7 | P P P B K P P P 
6 | _ _ N B _ N _ _ 
5 | _ _ _ _ _ _ _ _ 
4 | P _ _ _ _ _ _ _ 
3 | _ _ P P P _ P _ 
2 | _ P _ _ _ _ _ P 
1 | R N B Q K _ _ R 
-------------------
  | A B C D E F G H 

We are playing as White
Move history:
c2c3
b8c6
e2e3
g8f6
f2f4
e7e5
g2g3
f8d6
a2a4
e8e7
f1h3
d8e8
g1e2
e5f4
e2f4
d6f4
d2d3
f4d6
h3d7
c8d7
8 | R _ _ _ Q _ _ R 
7 | P P P B K P P P 
6 | _ _ N B _ N _ _ 
5 | _ _ _ _ _ _ _ _ 
4 | P _ _ _ _ _ _ _ 
3 | _ _ P P P _ P _ 
2 | _ P _ _ _ _ _ P 
1 | R N B Q K _ _ R 
-------------------
  | A B C D E F G H 

It is white's turn to play.
AI's move: b2b4
Move written: b2b4
[32;1m[Game] [0mPlayer's error code: 0
[32;1m[Game] [0mChecking move validity...
[32;1m[Board] [0mInitializing board...
[32;1m[Board] [0mLoading history file `championship/lizzie-iii-bbd/history.csv`...
[32;1m[Board] [0mLoaded 20 move(s).
[32;1m[Board] [0mLoading move file `championship/lizzie-iii-bbd/move.csv`...
[32;1m[Board] [0mWhite player is playing b2 to b4.
[32;1m[Board] [0m
[32;1m[Board] [0m    a b c d e f g h 
[32;1m[Board] [0m  -------------------
[32;1m[Board] [0m8 ||[30;1mr[0m| |[7;1m [0m| |[30;1mQ[0m| |[7;1m [0m|[30;1mr[0m|| 8
[32;1m[Board] [0m  -------------------
[32;1m[Board] [0m7 ||[30;1mp[0m|[30;1mp[0m|[30;1mp[0m|[30;1mb[0m|[30;1mK[0m|[30;1mp[0m|[30;1mp[0m|[30;1mp[0m|| 7
[32;1m[Board] [0m  -------------------
[32;1m[Board] [0m6 ||[7;1m [0m| |[30;1mk[0m|[30;1mb[0m|[7;1m [0m|[30;1mk[0m|[7;1m [0m| || 6
[32;1m[Board] [0m  -------------------
[32;1m[Board] [0m5 || |[7;1m [0m| |[7;1m [0m| |[7;1m [0m| |[7;1m [0m|| 5
[32;1m[Board] [0m  -------------------
[32;1m[Board] [0m4 ||[0;1mp[0m|[0;1mp[0m|[7;1m [0m| |[7;1m [0m| |[7;1m [0m| || 4
[32;1m[Board] [0m  -------------------
[32;1m[Board] [0m3 || |[7;1m [0m|[0;1mp[0m|[0;1mp[0m|[0;1mp[0m|[7;1m [0m|[0;1mp[0m|[7;1m [0m|| 3
[32;1m[Board] [0m  -------------------
[32;1m[Board] [0m2 ||[7;1m [0m| |[7;1m [0m| |[7;1m [0m| |[7;1m [0m|[0;1mp[0m|| 2
[32;1m[Board] [0m  -------------------
[32;1m[Board] [0m1 ||[0;1mr[0m|[0;1mk[0m|[0;1mb[0m|[0;1mQ[0m|[0;1mK[0m|[7;1m [0m| |[0;1mr[0m|| 1
[32;1m[Board] [0m  -------------------
[32;1m[Board] [0m    a b c d e f g h
[32;1m[Board] [0m
[32;1m[Referee] [0mThis is the turn of the Black player...
info score 1402 depth 1 nodes 63 time 1
info score 1385 depth 2 nodes 1542 time 19
info score 1411 depth 3 nodes 10482 time 121
info score 1377 depth 4 nodes 129949 time 891
info score 1399 depth 5 nodes 1069917 time 7512
info score 1307 depth 6 nodes 10273186 time 51706
bestmove c6e5
[32;1m[Game] [0mPlayer's error code: 0
[32;1m[Game] [0mChecking move validity...
[32;1m[Board] [0mInitializing board...
[32;1m[Board] [0mLoading history file `championship/lizzie-iii-bbd/history.csv`...
[32;1m[Board] [0mLoaded 21 move(s).
[32;1m[Board] [0mLoading move file `championship/lizzie-iii-bbd/move.csv`...
[32;1m[Board] [0mBlack player is playing c6 to e5.
[32;1m[Board] [0m
[32;1m[Board] [0m    a b c d e f g h 
[32;1m[Board] [0m  -------------------
[32;1m[Board] [0m8 ||[30;1mr[0m| |[7;1m [0m| |[30;1mQ[0m| |[7;1m [0m|[30;1mr[0m|| 8
[32;1m[Board] [0m  -------------------
[32;1m[Board] [0m7 ||[30;1mp[0m|[30;1mp[0m|[30;1mp[0m|[30;1mb[0m|[30;1mK[0m|[30;1mp[0m|[30;1mp[0m|[30;1mp[0m|| 7
[32;1m[Board] [0m  -------------------
[32;1m[Board] [0m6 ||[7;1m [0m| |[7;1m [0m|[30;1mb[0m|[7;1m [0m|[30;1mk[0m|[7;1m [0m| || 6
[32;1m[Board] [0m  -------------------
[32;1m[Board] [0m5 || |[7;1m [0m| |[7;1m [0m|[30;1mk[0m|[7;1m [0m| |[7;1m [0m|| 5
[32;1m[Board] [0m  -------------------
[32;1m[Board] [0m4 ||[0;1mp[0m|[0;1mp[0m|[7;1m [0m| |[7;1m [0m| |[7;1m [0m| || 4
[32;1m[Board] [0m  -------------------
[32;1m[Board] [0m3 || |[7;1m [0m|[0;1mp[0m|[0;1mp[0m|[0;1mp[0m|[7;1m [0m|[0;1mp[0m|[7;1m [0m|| 3
[32;1m[Board] [0m  -------------------
[32;1m[Board] [0m2 ||[7;1m [0m| |[7;1m [0m| |[7;1m [0m| |[7;1m [0m|[0;1mp[0m|| 2
[32;1m[Board] [0m  -------------------
[32;1m[Board] [0m1 ||[0;1mr[0m|[0;1mk[0m|[0;1mb[0m|[0;1mQ[0m|[0;1mK[0m|[7;1m [0m| |[0;1mr[0m|| 1
[32;1m[Board] [0m  -------------------
[32;1m[Board] [0m    a b c d e f g h
[32;1m[Board] [0m
[32;1m[Referee] [0mThis is the turn of the White player...
Input file: championship/lizzie-iii-bbd/history.csv
Output file: championship/lizzie-iii-bbd/move.csv
Turn of: white
Succesful move
c2c3
8 | R N B Q K B N R 
7 | P P P P P P P P 
6 | _ _ _ _ _ _ _ _ 
5 | _ _ _ _ _ _ _ _ 
4 | _ _ _ _ _ _ _ _ 
3 | _ _ P _ _ _ _ _ 
2 | P P _ P P P P P 
1 | R N B Q K B N R 
-------------------
  | A B C D E F G H 

Turn of: black
Succesful move
b8c6
8 | R _ B Q K B N R 
7 | P P P P P P P P 
6 | _ _ N _ _ _ _ _ 
5 | _ _ _ _ _ _ _ _ 
4 | _ _ _ _ _ _ _ _ 
3 | _ _ P _ _ _ _ _ 
2 | P P _ P P P P P 
1 | R N B Q K B N R 
-------------------
  | A B C D E F G H 

Turn of: white
Succesful move
e2e3
8 | R _ B Q K B N R 
7 | P P P P P P P P 
6 | _ _ N _ _ _ _ _ 
5 | _ _ _ _ _ _ _ _ 
4 | _ _ _ _ _ _ _ _ 
3 | _ _ P _ P _ _ _ 
2 | P P _ P _ P P P 
1 | R N B Q K B N R 
-------------------
  | A B C D E F G H 

Turn of: black
Succesful move
g8f6
8 | R _ B Q K B _ R 
7 | P P P P P P P P 
6 | _ _ N _ _ N _ _ 
5 | _ _ _ _ _ _ _ _ 
4 | _ _ _ _ _ _ _ _ 
3 | _ _ P _ P _ _ _ 
2 | P P _ P _ P P P 
1 | R N B Q K B N R 
-------------------
  | A B C D E F G H 

Turn of: white
Succesful move
f2f4
8 | R _ B Q K B _ R 
7 | P P P P P P P P 
6 | _ _ N _ _ N _ _ 
5 | _ _ _ _ _ _ _ _ 
4 | _ _ _ _ _ P _ _ 
3 | _ _ P _ P _ _ _ 
2 | P P _ P _ _ P P 
1 | R N B Q K B N R 
-------------------
  | A B C D E F G H 

Turn of: black
Succesful move
e7e5
8 | R _ B Q K B _ R 
7 | P P P P _ P P P 
6 | _ _ N _ _ N _ _ 
5 | _ _ _ _ P _ _ _ 
4 | _ _ _ _ _ P _ _ 
3 | _ _ P _ P _ _ _ 
2 | P P _ P _ _ P P 
1 | R N B Q K B N R 
-------------------
  | A B C D E F G H 

Turn of: white
Succesful move
g2g3
8 | R _ B Q K B _ R 
7 | P P P P _ P P P 
6 | _ _ N _ _ N _ _ 
5 | _ _ _ _ P _ _ _ 
4 | _ _ _ _ _ P _ _ 
3 | _ _ P _ P _ P _ 
2 | P P _ P _ _ _ P 
1 | R N B Q K B N R 
-------------------
  | A B C D E F G H 

Turn of: black
Succesful move
f8d6
8 | R _ B Q K _ _ R 
7 | P P P P _ P P P 
6 | _ _ N B _ N _ _ 
5 | _ _ _ _ P _ _ _ 
4 | _ _ _ _ _ P _ _ 
3 | _ _ P _ P _ P _ 
2 | P P _ P _ _ _ P 
1 | R N B Q K B N R 
-------------------
  | A B C D E F G H 

Turn of: white
Succesful move
a2a4
8 | R _ B Q K _ _ R 
7 | P P P P _ P P P 
6 | _ _ N B _ N _ _ 
5 | _ _ _ _ P _ _ _ 
4 | P _ _ _ _ P _ _ 
3 | _ _ P _ P _ P _ 
2 | _ P _ P _ _ _ P 
1 | R N B Q K B N R 
-------------------
  | A B C D E F G H 

Turn of: black
Succesful move
e8e7
8 | R _ B Q _ _ _ R 
7 | P P P P K P P P 
6 | _ _ N B _ N _ _ 
5 | _ _ _ _ P _ _ _ 
4 | P _ _ _ _ P _ _ 
3 | _ _ P _ P _ P _ 
2 | _ P _ P _ _ _ P 
1 | R N B Q K B N R 
-------------------
  | A B C D E F G H 

Turn of: white
Succesful move
f1h3
8 | R _ B Q _ _ _ R 
7 | P P P P K P P P 
6 | _ _ N B _ N _ _ 
5 | _ _ _ _ P _ _ _ 
4 | P _ _ _ _ P _ _ 
3 | _ _ P _ P _ P B 
2 | _ P _ P _ _ _ P 
1 | R N B Q K _ N R 
-------------------
  | A B C D E F G H 

Turn of: black
Succesful move
d8e8
8 | R _ B _ Q _ _ R 
7 | P P P P K P P P 
6 | _ _ N B _ N _ _ 
5 | _ _ _ _ P _ _ _ 
4 | P _ _ _ _ P _ _ 
3 | _ _ P _ P _ P B 
2 | _ P _ P _ _ _ P 
1 | R N B Q K _ N R 
-------------------
  | A B C D E F G H 

Turn of: white
Succesful move
g1e2
8 | R _ B _ Q _ _ R 
7 | P P P P K P P P 
6 | _ _ N B _ N _ _ 
5 | _ _ _ _ P _ _ _ 
4 | P _ _ _ _ P _ _ 
3 | _ _ P _ P _ P B 
2 | _ P _ P N _ _ P 
1 | R N B Q K _ _ R 
-------------------
  | A B C D E F G H 

Turn of: black
Succesful move
e5f4
8 | R _ B _ Q _ _ R 
7 | P P P P K P P P 
6 | _ _ N B _ N _ _ 
5 | _ _ _ _ _ _ _ _ 
4 | P _ _ _ _ P _ _ 
3 | _ _ P _ P _ P B 
2 | _ P _ P N _ _ P 
1 | R N B Q K _ _ R 
-------------------
  | A B C D E F G H 

Turn of: white
Succesful move
e2f4
8 | R _ B _ Q _ _ R 
7 | P P P P K P P P 
6 | _ _ N B _ N _ _ 
5 | _ _ _ _ _ _ _ _ 
4 | P _ _ _ _ N _ _ 
3 | _ _ P _ P _ P B 
2 | _ P _ P _ _ _ P 
1 | R N B Q K _ _ R 
-------------------
  | A B C D E F G H 

Turn of: black
Succesful move
d6f4
8 | R _ B _ Q _ _ R 
7 | P P P P K P P P 
6 | _ _ N _ _ N _ _ 
5 | _ _ _ _ _ _ _ _ 
4 | P _ _ _ _ B _ _ 
3 | _ _ P _ P _ P B 
2 | _ P _ P _ _ _ P 
1 | R N B Q K _ _ R 
-------------------
  | A B C D E F G H 

Turn of: white
Succesful move
d2d3
8 | R _ B _ Q _ _ R 
7 | P P P P K P P P 
6 | _ _ N _ _ N _ _ 
5 | _ _ _ _ _ _ _ _ 
4 | P _ _ _ _ B _ _ 
3 | _ _ P P P _ P B 
2 | _ P _ _ _ _ _ P 
1 | R N B Q K _ _ R 
-------------------
  | A B C D E F G H 

Turn of: black
Succesful move
f4d6
8 | R _ B _ Q _ _ R 
7 | P P P P K P P P 
6 | _ _ N B _ N _ _ 
5 | _ _ _ _ _ _ _ _ 
4 | P _ _ _ _ _ _ _ 
3 | _ _ P P P _ P B 
2 | _ P _ _ _ _ _ P 
1 | R N B Q K _ _ R 
-------------------
  | A B C D E F G H 

Turn of: white
Succesful move
h3d7
8 | R _ B _ Q _ _ R 
7 | P P P B K P P P 
6 | _ _ N B _ N _ _ 
5 | _ _ _ _ _ _ _ _ 
4 | P _ _ _ _ _ _ _ 
3 | _ _ P P P _ P _ 
2 | _ P _ _ _ _ _ P 
1 | R N B Q K _ _ R 
-------------------
  | A B C D E F G H 

Turn of: black
Succesful move
c8d7
8 | R _ _ _ Q _ _ R 
7 | P P P B K P P P 
6 | _ _ N B _ N _ _ 
5 | _ _ _ _ _ _ _ _ 
4 | P _ _ _ _ _ _ _ 
3 | _ _ P P P _ P _ 
2 | _ P _ _ _ _ _ P 
1 | R N B Q K _ _ R 
-------------------
  | A B C D E F G H 

Turn of: white
Succesful move
b2b4
8 | R _ _ _ Q _ _ R 
7 | P P P B K P P P 
6 | _ _ N B _ N _ _ 
5 | _ _ _ _ _ _ _ _ 
4 | P P _ _ _ _ _ _ 
3 | _ _ P P P _ P _ 
2 | _ _ _ _ _ _ _ P 
1 | R N B Q K _ _ R 
-------------------
  | A B C D E F G H 

Turn of: black
Succesful move
c6e5
8 | R _ _ _ Q _ _ R 
7 | P P P B K P P P 
6 | _ _ _ B _ N _ _ 
5 | _ _ _ _ N _ _ _ 
4 | P P _ _ _ _ _ _ 
3 | _ _ P P P _ P _ 
2 | _ _ _ _ _ _ _ P 
1 | R N B Q K _ _ R 
-------------------
  | A B C D E F G H 

We are playing as White
Move history:
c2c3
b8c6
e2e3
g8f6
f2f4
e7e5
g2g3
f8d6
a2a4
e8e7
f1h3
d8e8
g1e2
e5f4
e2f4
d6f4
d2d3
f4d6
h3d7
c8d7
b2b4
c6e5
8 | R _ _ _ Q _ _ R 
7 | P P P B K P P P 
6 | _ _ _ B _ N _ _ 
5 | _ _ _ _ N _ _ _ 
4 | P P _ _ _ _ _ _ 
3 | _ _ P P P _ P _ 
2 | _ _ _ _ _ _ _ P 
1 | R N B Q K _ _ R 
-------------------
  | A B C D E F G H 

It is white's turn to play.
AI's move: c1d2
Move written: c1d2
[32;1m[Game] [0mPlayer's error code: 0
[32;1m[Game] [0mChecking move validity...
[32;1m[Board] [0mInitializing board...
[32;1m[Board] [0mLoading history file `championship/lizzie-iii-bbd/history.csv`...
[32;1m[Board] [0mLoaded 22 move(s).
[32;1m[Board] [0mLoading move file `championship/lizzie-iii-bbd/move.csv`...
[32;1m[Board] [0mWhite player is playing c1 to d2.
[32;1m[Board] [0m
[32;1m[Board] [0m    a b c d e f g h 
[32;1m[Board] [0m  -------------------
[32;1m[Board] [0m8 ||[30;1mr[0m| |[7;1m [0m| |[30;1mQ[0m| |[7;1m [0m|[30;1mr[0m|| 8
[32;1m[Board] [0m  -------------------
[32;1m[Board] [0m7 ||[30;1mp[0m|[30;1mp[0m|[30;1mp[0m|[30;1mb[0m|[30;1mK[0m|[30;1mp[0m|[30;1mp[0m|[30;1mp[0m|| 7
[32;1m[Board] [0m  -------------------
[32;1m[Board] [0m6 ||[7;1m [0m| |[7;1m [0m|[30;1mb[0m|[7;1m [0m|[30;1mk[0m|[7;1m [0m| || 6
[32;1m[Board] [0m  -------------------
[32;1m[Board] [0m5 || |[7;1m [0m| |[7;1m [0m|[30;1mk[0m|[7;1m [0m| |[7;1m [0m|| 5
[32;1m[Board] [0m  -------------------
[32;1m[Board] [0m4 ||[0;1mp[0m|[0;1mp[0m|[7;1m [0m| |[7;1m [0m| |[7;1m [0m| || 4
[32;1m[Board] [0m  -------------------
[32;1m[Board] [0m3 || |[7;1m [0m|[0;1mp[0m|[0;1mp[0m|[0;1mp[0m|[7;1m [0m|[0;1mp[0m|[7;1m [0m|| 3
[32;1m[Board] [0m  -------------------
[32;1m[Board] [0m2 ||[7;1m [0m| |[7;1m [0m|[0;1mb[0m|[7;1m [0m| |[7;1m [0m|[0;1mp[0m|| 2
[32;1m[Board] [0m  -------------------
[32;1m[Board] [0m1 ||[0;1mr[0m|[0;1mk[0m| |[0;1mQ[0m|[0;1mK[0m|[7;1m [0m| |[0;1mr[0m|| 1
[32;1m[Board] [0m  -------------------
[32;1m[Board] [0m    a b c d e f g h
[32;1m[Board] [0m
[32;1m[Referee] [0mThis is the turn of the Black player...
info score 1384 depth 1 nodes 45 time 0
info score 1368 depth 2 nodes 633 time 3
info score 1385 depth 3 nodes 3405 time 16
info score 1424 depth 4 nodes 25820 time 122
info score 1450 depth 5 nodes 160067 time 712
info score 1430 depth 6 nodes 1503414 time 6807
bestmove e5d3
[32;1m[Game] [0mPlayer's error code: 0
[32;1m[Game] [0mChecking move validity...
[32;1m[Board] [0mInitializing board...
[32;1m[Board] [0mLoading history file `championship/lizzie-iii-bbd/history.csv`...
[32;1m[Board] [0mLoaded 23 move(s).
[32;1m[Board] [0mLoading move file `championship/lizzie-iii-bbd/move.csv`...
[32;1m[Board] [0mBlack player is playing e5 to d3.
[32;1m[Board] [0m[5;1mBlack Knight is taking White Pawn.[0m
[32;1m[Board] [0m
[32;1m[Board] [0m    a b c d e f g h 
[32;1m[Board] [0m  -------------------
[32;1m[Board] [0m8 ||[30;1mr[0m| |[7;1m [0m| |[30;1mQ[0m| |[7;1m [0m|[30;1mr[0m|| 8
[32;1m[Board] [0m  -------------------
[32;1m[Board] [0m7 ||[30;1mp[0m|[30;1mp[0m|[30;1mp[0m|[30;1mb[0m|[30;1mK[0m|[30;1mp[0m|[30;1mp[0m|[30;1mp[0m|| 7
[32;1m[Board] [0m  -------------------
[32;1m[Board] [0m6 ||[7;1m [0m| |[7;1m [0m|[30;1mb[0m|[7;1m [0m|[30;1mk[0m|[7;1m [0m| || 6
[32;1m[Board] [0m  -------------------
[32;1m[Board] [0m5 || |[7;1m [0m| |[7;1m [0m| |[7;1m [0m| |[7;1m [0m|| 5
[32;1m[Board] [0m  -------------------
[32;1m[Board] [0m4 ||[0;1mp[0m|[0;1mp[0m|[7;1m [0m| |[7;1m [0m| |[7;1m [0m| || 4
[32;1m[Board] [0m  -------------------
[32;1m[Board] [0m3 || |[7;1m [0m|[0;1mp[0m|[30;1mk[0m|[0;1mp[0m|[7;1m [0m|[0;1mp[0m|[7;1m [0m|| 3
[32;1m[Board] [0m  -------------------
[32;1m[Board] [0m2 ||[7;1m [0m| |[7;1m [0m|[0;1mb[0m|[7;1m [0m| |[7;1m [0m|[0;1mp[0m|| 2
[32;1m[Board] [0m  -------------------
[32;1m[Board] [0m1 ||[0;1mr[0m|[0;1mk[0m| |[0;1mQ[0m|[0;1mK[0m|[7;1m [0m| |[0;1mr[0m|| 1
[32;1m[Board] [0m  -------------------
[32;1m[Board] [0m    a b c d e f g h
[32;1m[Board] [0m
[32;1m[Referee] [0mThis is the turn of the White player...
[32;1m[Board] [0m[33;1m[WARNING][0m [5;1mWhite King in check![0m
[32;1m[Board] [0m[33;1m[WARNING][0m    Threatened by Black Knight (d3)
Input file: championship/lizzie-iii-bbd/history.csv
Output file: championship/lizzie-iii-bbd/move.csv
Turn of: white
Succesful move
c2c3
8 | R N B Q K B N R 
7 | P P P P P P P P 
6 | _ _ _ _ _ _ _ _ 
5 | _ _ _ _ _ _ _ _ 
4 | _ _ _ _ _ _ _ _ 
3 | _ _ P _ _ _ _ _ 
2 | P P _ P P P P P 
1 | R N B Q K B N R 
-------------------
  | A B C D E F G H 

Turn of: black
Succesful move
b8c6
8 | R _ B Q K B N R 
7 | P P P P P P P P 
6 | _ _ N _ _ _ _ _ 
5 | _ _ _ _ _ _ _ _ 
4 | _ _ _ _ _ _ _ _ 
3 | _ _ P _ _ _ _ _ 
2 | P P _ P P P P P 
1 | R N B Q K B N R 
-------------------
  | A B C D E F G H 

Turn of: white
Succesful move
e2e3
8 | R _ B Q K B N R 
7 | P P P P P P P P 
6 | _ _ N _ _ _ _ _ 
5 | _ _ _ _ _ _ _ _ 
4 | _ _ _ _ _ _ _ _ 
3 | _ _ P _ P _ _ _ 
2 | P P _ P _ P P P 
1 | R N B Q K B N R 
-------------------
  | A B C D E F G H 

Turn of: black
Succesful move
g8f6
8 | R _ B Q K B _ R 
7 | P P P P P P P P 
6 | _ _ N _ _ N _ _ 
5 | _ _ _ _ _ _ _ _ 
4 | _ _ _ _ _ _ _ _ 
3 | _ _ P _ P _ _ _ 
2 | P P _ P _ P P P 
1 | R N B Q K B N R 
-------------------
  | A B C D E F G H 

Turn of: white
Succesful move
f2f4
8 | R _ B Q K B _ R 
7 | P P P P P P P P 
6 | _ _ N _ _ N _ _ 
5 | _ _ _ _ _ _ _ _ 
4 | _ _ _ _ _ P _ _ 
3 | _ _ P _ P _ _ _ 
2 | P P _ P _ _ P P 
1 | R N B Q K B N R 
-------------------
  | A B C D E F G H 

Turn of: black
Succesful move
e7e5
8 | R _ B Q K B _ R 
7 | P P P P _ P P P 
6 | _ _ N _ _ N _ _ 
5 | _ _ _ _ P _ _ _ 
4 | _ _ _ _ _ P _ _ 
3 | _ _ P _ P _ _ _ 
2 | P P _ P _ _ P P 
1 | R N B Q K B N R 
-------------------
  | A B C D E F G H 

Turn of: white
Succesful move
g2g3
8 | R _ B Q K B _ R 
7 | P P P P _ P P P 
6 | _ _ N _ _ N _ _ 
5 | _ _ _ _ P _ _ _ 
4 | _ _ _ _ _ P _ _ 
3 | _ _ P _ P _ P _ 
2 | P P _ P _ _ _ P 
1 | R N B Q K B N R 
-------------------
  | A B C D E F G H 

Turn of: black
Succesful move
f8d6
8 | R _ B Q K _ _ R 
7 | P P P P _ P P P 
6 | _ _ N B _ N _ _ 
5 | _ _ _ _ P _ _ _ 
4 | _ _ _ _ _ P _ _ 
3 | _ _ P _ P _ P _ 
2 | P P _ P _ _ _ P 
1 | R N B Q K B N R 
-------------------
  | A B C D E F G H 

Turn of: white
Succesful move
a2a4
8 | R _ B Q K _ _ R 
7 | P P P P _ P P P 
6 | _ _ N B _ N _ _ 
5 | _ _ _ _ P _ _ _ 
4 | P _ _ _ _ P _ _ 
3 | _ _ P _ P _ P _ 
2 | _ P _ P _ _ _ P 
1 | R N B Q K B N R 
-------------------
  | A B C D E F G H 

Turn of: black
Succesful move
e8e7
8 | R _ B Q _ _ _ R 
7 | P P P P K P P P 
6 | _ _ N B _ N _ _ 
5 | _ _ _ _ P _ _ _ 
4 | P _ _ _ _ P _ _ 
3 | _ _ P _ P _ P _ 
2 | _ P _ P _ _ _ P 
1 | R N B Q K B N R 
-------------------
  | A B C D E F G H 

Turn of: white
Succesful move
f1h3
8 | R _ B Q _ _ _ R 
7 | P P P P K P P P 
6 | _ _ N B _ N _ _ 
5 | _ _ _ _ P _ _ _ 
4 | P _ _ _ _ P _ _ 
3 | _ _ P _ P _ P B 
2 | _ P _ P _ _ _ P 
1 | R N B Q K _ N R 
-------------------
  | A B C D E F G H 

Turn of: black
Succesful move
d8e8
8 | R _ B _ Q _ _ R 
7 | P P P P K P P P 
6 | _ _ N B _ N _ _ 
5 | _ _ _ _ P _ _ _ 
4 | P _ _ _ _ P _ _ 
3 | _ _ P _ P _ P B 
2 | _ P _ P _ _ _ P 
1 | R N B Q K _ N R 
-------------------
  | A B C D E F G H 

Turn of: white
Succesful move
g1e2
8 | R _ B _ Q _ _ R 
7 | P P P P K P P P 
6 | _ _ N B _ N _ _ 
5 | _ _ _ _ P _ _ _ 
4 | P _ _ _ _ P _ _ 
3 | _ _ P _ P _ P B 
2 | _ P _ P N _ _ P 
1 | R N B Q K _ _ R 
-------------------
  | A B C D E F G H 

Turn of: black
Succesful move
e5f4
8 | R _ B _ Q _ _ R 
7 | P P P P K P P P 
6 | _ _ N B _ N _ _ 
5 | _ _ _ _ _ _ _ _ 
4 | P _ _ _ _ P _ _ 
3 | _ _ P _ P _ P B 
2 | _ P _ P N _ _ P 
1 | R N B Q K _ _ R 
-------------------
  | A B C D E F G H 

Turn of: white
Succesful move
e2f4
8 | R _ B _ Q _ _ R 
7 | P P P P K P P P 
6 | _ _ N B _ N _ _ 
5 | _ _ _ _ _ _ _ _ 
4 | P _ _ _ _ N _ _ 
3 | _ _ P _ P _ P B 
2 | _ P _ P _ _ _ P 
1 | R N B Q K _ _ R 
-------------------
  | A B C D E F G H 

Turn of: black
Succesful move
d6f4
8 | R _ B _ Q _ _ R 
7 | P P P P K P P P 
6 | _ _ N _ _ N _ _ 
5 | _ _ _ _ _ _ _ _ 
4 | P _ _ _ _ B _ _ 
3 | _ _ P _ P _ P B 
2 | _ P _ P _ _ _ P 
1 | R N B Q K _ _ R 
-------------------
  | A B C D E F G H 

Turn of: white
Succesful move
d2d3
8 | R _ B _ Q _ _ R 
7 | P P P P K P P P 
6 | _ _ N _ _ N _ _ 
5 | _ _ _ _ _ _ _ _ 
4 | P _ _ _ _ B _ _ 
3 | _ _ P P P _ P B 
2 | _ P _ _ _ _ _ P 
1 | R N B Q K _ _ R 
-------------------
  | A B C D E F G H 

Turn of: black
Succesful move
f4d6
8 | R _ B _ Q _ _ R 
7 | P P P P K P P P 
6 | _ _ N B _ N _ _ 
5 | _ _ _ _ _ _ _ _ 
4 | P _ _ _ _ _ _ _ 
3 | _ _ P P P _ P B 
2 | _ P _ _ _ _ _ P 
1 | R N B Q K _ _ R 
-------------------
  | A B C D E F G H 

Turn of: white
Succesful move
h3d7
8 | R _ B _ Q _ _ R 
7 | P P P B K P P P 
6 | _ _ N B _ N _ _ 
5 | _ _ _ _ _ _ _ _ 
4 | P _ _ _ _ _ _ _ 
3 | _ _ P P P _ P _ 
2 | _ P _ _ _ _ _ P 
1 | R N B Q K _ _ R 
-------------------
  | A B C D E F G H 

Turn of: black
Succesful move
c8d7
8 | R _ _ _ Q _ _ R 
7 | P P P B K P P P 
6 | _ _ N B _ N _ _ 
5 | _ _ _ _ _ _ _ _ 
4 | P _ _ _ _ _ _ _ 
3 | _ _ P P P _ P _ 
2 | _ P _ _ _ _ _ P 
1 | R N B Q K _ _ R 
-------------------
  | A B C D E F G H 

Turn of: white
Succesful move
b2b4
8 | R _ _ _ Q _ _ R 
7 | P P P B K P P P 
6 | _ _ N B _ N _ _ 
5 | _ _ _ _ _ _ _ _ 
4 | P P _ _ _ _ _ _ 
3 | _ _ P P P _ P _ 
2 | _ _ _ _ _ _ _ P 
1 | R N B Q K _ _ R 
-------------------
  | A B C D E F G H 

Turn of: black
Succesful move
c6e5
8 | R _ _ _ Q _ _ R 
7 | P P P B K P P P 
6 | _ _ _ B _ N _ _ 
5 | _ _ _ _ N _ _ _ 
4 | P P _ _ _ _ _ _ 
3 | _ _ P P P _ P _ 
2 | _ _ _ _ _ _ _ P 
1 | R N B Q K _ _ R 
-------------------
  | A B C D E F G H 

Turn of: white
Succesful move
c1d2
8 | R _ _ _ Q _ _ R 
7 | P P P B K P P P 
6 | _ _ _ B _ N _ _ 
5 | _ _ _ _ N _ _ _ 
4 | P P _ _ _ _ _ _ 
3 | _ _ P P P _ P _ 
2 | _ _ _ B _ _ _ P 
1 | R N _ Q K _ _ R 
-------------------
  | A B C D E F G H 

Turn of: black
Succesful move
e5d3
8 | R _ _ _ Q _ _ R 
7 | P P P B K P P P 
6 | _ _ _ B _ N _ _ 
5 | _ _ _ _ _ _ _ _ 
4 | P P _ _ _ _ _ _ 
3 | _ _ P N P _ P _ 
2 | _ _ _ B _ _ _ P 
1 | R N _ Q K _ _ R 
-------------------
  | A B C D E F G H 

We are playing as White
Move history:
c2c3
b8c6
e2e3
g8f6
f2f4
e7e5
g2g3
f8d6
a2a4
e8e7
f1h3
d8e8
g1e2
e5f4
e2f4
d6f4
d2d3
f4d6
h3d7
c8d7
b2b4
c6e5
c1d2
e5d3
8 | R _ _ _ Q _ _ R 
7 | P P P B K P P P 
6 | _ _ _ B _ N _ _ 
5 | _ _ _ _ _ _ _ _ 
4 | P P _ _ _ _ _ _ 
3 | _ _ P N P _ P _ 
2 | _ _ _ B _ _ _ P 
1 | R N _ Q K _ _ R 
-------------------
  | A B C D E F G H 

It is white's turn to play.
AI's move: e1f1
Move written: e1f1
[32;1m[Game] [0mPlayer's error code: 0
[32;1m[Game] [0mChecking move validity...
[32;1m[Board] [0mInitializing board...
[32;1m[Board] [0mLoading history file `championship/lizzie-iii-bbd/history.csv`...
[32;1m[Board] [0mLoaded 24 move(s).
[32;1m[Board] [0mLoading move file `championship/lizzie-iii-bbd/move.csv`...
[32;1m[Board] [0mWhite player is playing e1 to f1.
[32;1m[Board] [0m
[32;1m[Board] [0m    a b c d e f g h 
[32;1m[Board] [0m  -------------------
[32;1m[Board] [0m8 ||[30;1mr[0m| |[7;1m [0m| |[30;1mQ[0m| |[7;1m [0m|[30;1mr[0m|| 8
[32;1m[Board] [0m  -------------------
[32;1m[Board] [0m7 ||[30;1mp[0m|[30;1mp[0m|[30;1mp[0m|[30;1mb[0m|[30;1mK[0m|[30;1mp[0m|[30;1mp[0m|[30;1mp[0m|| 7
[32;1m[Board] [0m  -------------------
[32;1m[Board] [0m6 ||[7;1m [0m| |[7;1m [0m|[30;1mb[0m|[7;1m [0m|[30;1mk[0m|[7;1m [0m| || 6
[32;1m[Board] [0m  -------------------
[32;1m[Board] [0m5 || |[7;1m [0m| |[7;1m [0m| |[7;1m [0m| |[7;1m [0m|| 5
[32;1m[Board] [0m  -------------------
[32;1m[Board] [0m4 ||[0;1mp[0m|[0;1mp[0m|[7;1m [0m| |[7;1m [0m| |[7;1m [0m| || 4
[32;1m[Board] [0m  -------------------
[32;1m[Board] [0m3 || |[7;1m [0m|[0;1mp[0m|[30;1mk[0m|[0;1mp[0m|[7;1m [0m|[0;1mp[0m|[7;1m [0m|| 3
[32;1m[Board] [0m  -------------------
[32;1m[Board] [0m2 ||[7;1m [0m| |[7;1m [0m|[0;1mb[0m|[7;1m [0m| |[7;1m [0m|[0;1mp[0m|| 2
[32;1m[Board] [0m  -------------------
[32;1m[Board] [0m1 ||[0;1mr[0m|[0;1mk[0m| |[0;1mQ[0m| |[0;1mK[0m| |[0;1mr[0m|| 1
[32;1m[Board] [0m  -------------------
[32;1m[Board] [0m    a b c d e f g h
[32;1m[Board] [0m
[32;1m[Referee] [0mThis is the turn of the Black player...
info score 1414 depth 1 nodes 128 time 1
info score 1424 depth 2 nodes 2090 time 8
info score 1450 depth 3 nodes 10930 time 43
info score 1430 depth 4 nodes 189940 time 811
info score 1450 depth 5 nodes 811614 time 3887
[32;1m[Game] [0mPlayer's error code: 31744
[32;1m[Game] [0m[31;1m[ERROR][0m The program `/home/julien/Pro/git/teaching/x/2024/bbd/build/bbd' has timed out :(
[32;1m[Game] [0mBlack player has lost on illegal move.
