[32;1m[Board] [0mInitializing board...
[32;1m[Board] [0m
[32;1m[Board] [0m    a b c d e f g h 
[32;1m[Board] [0m  -------------------
[32;1m[Board] [0m8 ||[30;1mr[0m|[30;1mk[0m|[30;1mb[0m|[30;1mQ[0m|[30;1mK[0m|[30;1mb[0m|[30;1mk[0m|[30;1mr[0m|| 8
[32;1m[Board] [0m  -------------------
[32;1m[Board] [0m7 ||[30;1mp[0m|[30;1mp[0m|[30;1mp[0m|[30;1mp[0m|[30;1mp[0m|[30;1mp[0m|[30;1mp[0m|[30;1mp[0m|| 7
[32;1m[Board] [0m  -------------------
[32;1m[Board] [0m6 ||[7;1m [0m| |[7;1m [0m| |[7;1m [0m| |[7;1m [0m| || 6
[32;1m[Board] [0m  -------------------
[32;1m[Board] [0m5 || |[7;1m [0m| |[7;1m [0m| |[7;1m [0m| |[7;1m [0m|| 5
[32;1m[Board] [0m  -------------------
[32;1m[Board] [0m4 ||[7;1m [0m| |[7;1m [0m| |[7;1m [0m| |[7;1m [0m| || 4
[32;1m[Board] [0m  -------------------
[32;1m[Board] [0m3 || |[7;1m [0m| |[7;1m [0m| |[7;1m [0m| |[7;1m [0m|| 3
[32;1m[Board] [0m  -------------------
[32;1m[Board] [0m2 ||[0;1mp[0m|[0;1mp[0m|[0;1mp[0m|[0;1mp[0m|[0;1mp[0m|[0;1mp[0m|[0;1mp[0m|[0;1mp[0m|| 2
[32;1m[Board] [0m  -------------------
[32;1m[Board] [0m1 ||[0;1mr[0m|[0;1mk[0m|[0;1mb[0m|[0;1mQ[0m|[0;1mK[0m|[0;1mb[0m|[0;1mk[0m|[0;1mr[0m|| 1
[32;1m[Board] [0m  -------------------
[32;1m[Board] [0m    a b c d e f g h
[32;1m[Board] [0m
[32;1m[Referee] [0mThis is the turn of the White player...
Input file: championship/lizzie-iii-git-gambit/history.csv
Output file: championship/lizzie-iii-git-gambit/move.csv
We are playing as White
8 | [1;31mR[0m [1;31mN[0m [1;31mB[0m [1;31mQ[0m [1;31mK[0m [1;31mB[0m [1;31mN[0m [1;31mR[0m 
7 | [1;31mP[0m [1;31mP[0m [1;31mP[0m [1;31mP[0m [1;31mP[0m [1;31mP[0m [1;31mP[0m [1;31mP[0m 
6 | [1;30m_[0m [1;30m_[0m [1;30m_[0m [1;30m_[0m [1;30m_[0m [1;30m_[0m [1;30m_[0m [1;30m_[0m 
5 | [1;30m_[0m [1;30m_[0m [1;30m_[0m [1;30m_[0m [1;30m_[0m [1;30m_[0m [1;30m_[0m [1;30m_[0m 
4 | [1;30m_[0m [1;30m_[0m [1;30m_[0m [1;30m_[0m [1;30m_[0m [1;30m_[0m [1;30m_[0m [1;30m_[0m 
3 | [1;30m_[0m [1;30m_[0m [1;30m_[0m [1;30m_[0m [1;30m_[0m [1;30m_[0m [1;30m_[0m [1;30m_[0m 
2 | [1;32mP[0m [1;32mP[0m [1;32mP[0m [1;32mP[0m [1;32mP[0m [1;32mP[0m [1;32mP[0m [1;32mP[0m 
1 | [1;32mR[0m [1;32mN[0m [1;32mB[0m [1;32mQ[0m [1;32mK[0m [1;32mB[0m [1;32mN[0m [1;32mR[0m 
-------------------
  | A B C D E F G H 

It is white's turn to play.
Best move: e2e3
Evaluation: 75
Node count: 29007

Total time: 1111.28 ms
[32;1m[Game] [0mPlayer's error code: 0
[32;1m[Game] [0mChecking move validity...
[32;1m[Board] [0mInitializing board...
[32;1m[Board] [0mLoading history file `championship/lizzie-iii-git-gambit/history.csv`...
[32;1m[Board] [0mLoaded 0 move(s).
[32;1m[Board] [0mLoading move file `championship/lizzie-iii-git-gambit/move.csv`...
[32;1m[Board] [0mWhite player is playing e2 to e3.
[32;1m[Board] [0m
[32;1m[Board] [0m    a b c d e f g h 
[32;1m[Board] [0m  -------------------
[32;1m[Board] [0m8 ||[30;1mr[0m|[30;1mk[0m|[30;1mb[0m|[30;1mQ[0m|[30;1mK[0m|[30;1mb[0m|[30;1mk[0m|[30;1mr[0m|| 8
[32;1m[Board] [0m  -------------------
[32;1m[Board] [0m7 ||[30;1mp[0m|[30;1mp[0m|[30;1mp[0m|[30;1mp[0m|[30;1mp[0m|[30;1mp[0m|[30;1mp[0m|[30;1mp[0m|| 7
[32;1m[Board] [0m  -------------------
[32;1m[Board] [0m6 ||[7;1m [0m| |[7;1m [0m| |[7;1m [0m| |[7;1m [0m| || 6
[32;1m[Board] [0m  -------------------
[32;1m[Board] [0m5 || |[7;1m [0m| |[7;1m [0m| |[7;1m [0m| |[7;1m [0m|| 5
[32;1m[Board] [0m  -------------------
[32;1m[Board] [0m4 ||[7;1m [0m| |[7;1m [0m| |[7;1m [0m| |[7;1m [0m| || 4
[32;1m[Board] [0m  -------------------
[32;1m[Board] [0m3 || |[7;1m [0m| |[7;1m [0m|[0;1mp[0m|[7;1m [0m| |[7;1m [0m|| 3
[32;1m[Board] [0m  -------------------
[32;1m[Board] [0m2 ||[0;1mp[0m|[0;1mp[0m|[0;1mp[0m|[0;1mp[0m|[7;1m [0m|[0;1mp[0m|[0;1mp[0m|[0;1mp[0m|| 2
[32;1m[Board] [0m  -------------------
[32;1m[Board] [0m1 ||[0;1mr[0m|[0;1mk[0m|[0;1mb[0m|[0;1mQ[0m|[0;1mK[0m|[0;1mb[0m|[0;1mk[0m|[0;1mr[0m|| 1
[32;1m[Board] [0m  -------------------
[32;1m[Board] [0m    a b c d e f g h
[32;1m[Board] [0m
[32;1m[Referee] [0mThis is the turn of the Black player...

    a   b   c   d   e   f   g   h 
8 | r | n | b | q | k | b | n | r  | 8
7 | p | p | p | p | p | p | p | p  | 7
6 |   |   |   |   |   |   |   |    | 6
5 |   |   |   |   |   |   |   |    | 5
4 |   |   |   |   |   |   |   |    | 4
3 |   |   |   |   | P |   |   |    | 3
2 | P | P | P | P |   | P | P | P  | 2
1 | R | N | B | Q | K | B | N | R  | 1
    a   b   c   d   e   f   g   h 

[32;1m[Game] [0mPlayer's error code: 0
[32;1m[Game] [0mChecking move validity...
[32;1m[Board] [0mInitializing board...
[32;1m[Board] [0mLoading history file `championship/lizzie-iii-git-gambit/history.csv`...
[32;1m[Board] [0mLoaded 1 move(s).
[32;1m[Board] [0mLoading move file `championship/lizzie-iii-git-gambit/move.csv`...
[32;1m[Board] [0mBlack player is playing e7 to e5.
[32;1m[Board] [0m
[32;1m[Board] [0m    a b c d e f g h 
[32;1m[Board] [0m  -------------------
[32;1m[Board] [0m8 ||[30;1mr[0m|[30;1mk[0m|[30;1mb[0m|[30;1mQ[0m|[30;1mK[0m|[30;1mb[0m|[30;1mk[0m|[30;1mr[0m|| 8
[32;1m[Board] [0m  -------------------
[32;1m[Board] [0m7 ||[30;1mp[0m|[30;1mp[0m|[30;1mp[0m|[30;1mp[0m| |[30;1mp[0m|[30;1mp[0m|[30;1mp[0m|| 7
[32;1m[Board] [0m  -------------------
[32;1m[Board] [0m6 ||[7;1m [0m| |[7;1m [0m| |[7;1m [0m| |[7;1m [0m| || 6
[32;1m[Board] [0m  -------------------
[32;1m[Board] [0m5 || |[7;1m [0m| |[7;1m [0m|[30;1mp[0m|[7;1m [0m| |[7;1m [0m|| 5
[32;1m[Board] [0m  -------------------
[32;1m[Board] [0m4 ||[7;1m [0m| |[7;1m [0m| |[7;1m [0m| |[7;1m [0m| || 4
[32;1m[Board] [0m  -------------------
[32;1m[Board] [0m3 || |[7;1m [0m| |[7;1m [0m|[0;1mp[0m|[7;1m [0m| |[7;1m [0m|| 3
[32;1m[Board] [0m  -------------------
[32;1m[Board] [0m2 ||[0;1mp[0m|[0;1mp[0m|[0;1mp[0m|[0;1mp[0m|[7;1m [0m|[0;1mp[0m|[0;1mp[0m|[0;1mp[0m|| 2
[32;1m[Board] [0m  -------------------
[32;1m[Board] [0m1 ||[0;1mr[0m|[0;1mk[0m|[0;1mb[0m|[0;1mQ[0m|[0;1mK[0m|[0;1mb[0m|[0;1mk[0m|[0;1mr[0m|| 1
[32;1m[Board] [0m  -------------------
[32;1m[Board] [0m    a b c d e f g h
[32;1m[Board] [0m
[32;1m[Referee] [0mThis is the turn of the White player...
Input file: championship/lizzie-iii-git-gambit/history.csv
Output file: championship/lizzie-iii-git-gambit/move.csv
We are playing as White
8 | [1;31mR[0m [1;31mN[0m [1;31mB[0m [1;31mQ[0m [1;31mK[0m [1;31mB[0m [1;31mN[0m [1;31mR[0m 
7 | [1;31mP[0m [1;31mP[0m [1;31mP[0m [1;31mP[0m [1;30m_[0m [1;31mP[0m [1;31mP[0m [1;31mP[0m 
6 | [1;30m_[0m [1;30m_[0m [1;30m_[0m [1;30m_[0m [1;30m_[0m [1;30m_[0m [1;30m_[0m [1;30m_[0m 
5 | [1;30m_[0m [1;30m_[0m [1;30m_[0m [1;30m_[0m [1;31mP[0m [1;30m_[0m [1;30m_[0m [1;30m_[0m 
4 | [1;30m_[0m [1;30m_[0m [1;30m_[0m [1;30m_[0m [1;30m_[0m [1;30m_[0m [1;30m_[0m [1;30m_[0m 
3 | [1;30m_[0m [1;30m_[0m [1;30m_[0m [1;30m_[0m [1;32mP[0m [1;30m_[0m [1;30m_[0m [1;30m_[0m 
2 | [1;32mP[0m [1;32mP[0m [1;32mP[0m [1;32mP[0m [1;30m_[0m [1;32mP[0m [1;32mP[0m [1;32mP[0m 
1 | [1;32mR[0m [1;32mN[0m [1;32mB[0m [1;32mQ[0m [1;32mK[0m [1;32mB[0m [1;32mN[0m [1;32mR[0m 
-------------------
  | A B C D E F G H 

It is white's turn to play.
Best move: d1g4
Evaluation: 65
Node count: 67029

Total time: 1889.99 ms
[32;1m[Game] [0mPlayer's error code: 0
[32;1m[Game] [0mChecking move validity...
[32;1m[Board] [0mInitializing board...
[32;1m[Board] [0mLoading history file `championship/lizzie-iii-git-gambit/history.csv`...
[32;1m[Board] [0mLoaded 2 move(s).
[32;1m[Board] [0mLoading move file `championship/lizzie-iii-git-gambit/move.csv`...
[32;1m[Board] [0mWhite player is playing d1 to g4.
[32;1m[Board] [0m
[32;1m[Board] [0m    a b c d e f g h 
[32;1m[Board] [0m  -------------------
[32;1m[Board] [0m8 ||[30;1mr[0m|[30;1mk[0m|[30;1mb[0m|[30;1mQ[0m|[30;1mK[0m|[30;1mb[0m|[30;1mk[0m|[30;1mr[0m|| 8
[32;1m[Board] [0m  -------------------
[32;1m[Board] [0m7 ||[30;1mp[0m|[30;1mp[0m|[30;1mp[0m|[30;1mp[0m| |[30;1mp[0m|[30;1mp[0m|[30;1mp[0m|| 7
[32;1m[Board] [0m  -------------------
[32;1m[Board] [0m6 ||[7;1m [0m| |[7;1m [0m| |[7;1m [0m| |[7;1m [0m| || 6
[32;1m[Board] [0m  -------------------
[32;1m[Board] [0m5 || |[7;1m [0m| |[7;1m [0m|[30;1mp[0m|[7;1m [0m| |[7;1m [0m|| 5
[32;1m[Board] [0m  -------------------
[32;1m[Board] [0m4 ||[7;1m [0m| |[7;1m [0m| |[7;1m [0m| |[0;1mQ[0m| || 4
[32;1m[Board] [0m  -------------------
[32;1m[Board] [0m3 || |[7;1m [0m| |[7;1m [0m|[0;1mp[0m|[7;1m [0m| |[7;1m [0m|| 3
[32;1m[Board] [0m  -------------------
[32;1m[Board] [0m2 ||[0;1mp[0m|[0;1mp[0m|[0;1mp[0m|[0;1mp[0m|[7;1m [0m|[0;1mp[0m|[0;1mp[0m|[0;1mp[0m|| 2
[32;1m[Board] [0m  -------------------
[32;1m[Board] [0m1 ||[0;1mr[0m|[0;1mk[0m|[0;1mb[0m|[7;1m [0m|[0;1mK[0m|[0;1mb[0m|[0;1mk[0m|[0;1mr[0m|| 1
[32;1m[Board] [0m  -------------------
[32;1m[Board] [0m    a b c d e f g h
[32;1m[Board] [0m
[32;1m[Referee] [0mThis is the turn of the Black player...

    a   b   c   d   e   f   g   h 
8 | r | n | b | q | k | b | n | r  | 8
7 | p | p | p | p |   | p | p | p  | 7
6 |   |   |   |   |   |   |   |    | 6
5 |   |   |   |   | p |   |   |    | 5
4 |   |   |   |   |   |   | Q |    | 4
3 |   |   |   |   | P |   |   |    | 3
2 | P | P | P | P |   | P | P | P  | 2
1 | R | N | B |   | K | B | N | R  | 1
    a   b   c   d   e   f   g   h 

[32;1m[Game] [0mPlayer's error code: 0
[32;1m[Game] [0mChecking move validity...
[32;1m[Board] [0mInitializing board...
[32;1m[Board] [0mLoading history file `championship/lizzie-iii-git-gambit/history.csv`...
[32;1m[Board] [0mLoaded 3 move(s).
[32;1m[Board] [0mLoading move file `championship/lizzie-iii-git-gambit/move.csv`...
[32;1m[Board] [0mBlack player is playing b8 to c6.
[32;1m[Board] [0m
[32;1m[Board] [0m    a b c d e f g h 
[32;1m[Board] [0m  -------------------
[32;1m[Board] [0m8 ||[30;1mr[0m| |[30;1mb[0m|[30;1mQ[0m|[30;1mK[0m|[30;1mb[0m|[30;1mk[0m|[30;1mr[0m|| 8
[32;1m[Board] [0m  -------------------
[32;1m[Board] [0m7 ||[30;1mp[0m|[30;1mp[0m|[30;1mp[0m|[30;1mp[0m| |[30;1mp[0m|[30;1mp[0m|[30;1mp[0m|| 7
[32;1m[Board] [0m  -------------------
[32;1m[Board] [0m6 ||[7;1m [0m| |[30;1mk[0m| |[7;1m [0m| |[7;1m [0m| || 6
[32;1m[Board] [0m  -------------------
[32;1m[Board] [0m5 || |[7;1m [0m| |[7;1m [0m|[30;1mp[0m|[7;1m [0m| |[7;1m [0m|| 5
[32;1m[Board] [0m  -------------------
[32;1m[Board] [0m4 ||[7;1m [0m| |[7;1m [0m| |[7;1m [0m| |[0;1mQ[0m| || 4
[32;1m[Board] [0m  -------------------
[32;1m[Board] [0m3 || |[7;1m [0m| |[7;1m [0m|[0;1mp[0m|[7;1m [0m| |[7;1m [0m|| 3
[32;1m[Board] [0m  -------------------
[32;1m[Board] [0m2 ||[0;1mp[0m|[0;1mp[0m|[0;1mp[0m|[0;1mp[0m|[7;1m [0m|[0;1mp[0m|[0;1mp[0m|[0;1mp[0m|| 2
[32;1m[Board] [0m  -------------------
[32;1m[Board] [0m1 ||[0;1mr[0m|[0;1mk[0m|[0;1mb[0m|[7;1m [0m|[0;1mK[0m|[0;1mb[0m|[0;1mk[0m|[0;1mr[0m|| 1
[32;1m[Board] [0m  -------------------
[32;1m[Board] [0m    a b c d e f g h
[32;1m[Board] [0m
[32;1m[Referee] [0mThis is the turn of the White player...
Input file: championship/lizzie-iii-git-gambit/history.csv
Output file: championship/lizzie-iii-git-gambit/move.csv
We are playing as White
8 | [1;31mR[0m [1;30m_[0m [1;31mB[0m [1;31mQ[0m [1;31mK[0m [1;31mB[0m [1;31mN[0m [1;31mR[0m 
7 | [1;31mP[0m [1;31mP[0m [1;31mP[0m [1;31mP[0m [1;30m_[0m [1;31mP[0m [1;31mP[0m [1;31mP[0m 
6 | [1;30m_[0m [1;30m_[0m [1;31mN[0m [1;30m_[0m [1;30m_[0m [1;30m_[0m [1;30m_[0m [1;30m_[0m 
5 | [1;30m_[0m [1;30m_[0m [1;30m_[0m [1;30m_[0m [1;31mP[0m [1;30m_[0m [1;30m_[0m [1;30m_[0m 
4 | [1;30m_[0m [1;30m_[0m [1;30m_[0m [1;30m_[0m [1;30m_[0m [1;30m_[0m [1;32mQ[0m [1;30m_[0m 
3 | [1;30m_[0m [1;30m_[0m [1;30m_[0m [1;30m_[0m [1;32mP[0m [1;30m_[0m [1;30m_[0m [1;30m_[0m 
2 | [1;32mP[0m [1;32mP[0m [1;32mP[0m [1;32mP[0m [1;30m_[0m [1;32mP[0m [1;32mP[0m [1;32mP[0m 
1 | [1;32mR[0m [1;32mN[0m [1;32mB[0m [1;30m_[0m [1;32mK[0m [1;32mB[0m [1;32mN[0m [1;32mR[0m 
-------------------
  | A B C D E F G H 

It is white's turn to play.
Best move: f1b5
Evaluation: 75
Node count: 81729

Total time: 2104.51 ms
[32;1m[Game] [0mPlayer's error code: 0
[32;1m[Game] [0mChecking move validity...
[32;1m[Board] [0mInitializing board...
[32;1m[Board] [0mLoading history file `championship/lizzie-iii-git-gambit/history.csv`...
[32;1m[Board] [0mLoaded 4 move(s).
[32;1m[Board] [0mLoading move file `championship/lizzie-iii-git-gambit/move.csv`...
[32;1m[Board] [0mWhite player is playing f1 to b5.
[32;1m[Board] [0m
[32;1m[Board] [0m    a b c d e f g h 
[32;1m[Board] [0m  -------------------
[32;1m[Board] [0m8 ||[30;1mr[0m| |[30;1mb[0m|[30;1mQ[0m|[30;1mK[0m|[30;1mb[0m|[30;1mk[0m|[30;1mr[0m|| 8
[32;1m[Board] [0m  -------------------
[32;1m[Board] [0m7 ||[30;1mp[0m|[30;1mp[0m|[30;1mp[0m|[30;1mp[0m| |[30;1mp[0m|[30;1mp[0m|[30;1mp[0m|| 7
[32;1m[Board] [0m  -------------------
[32;1m[Board] [0m6 ||[7;1m [0m| |[30;1mk[0m| |[7;1m [0m| |[7;1m [0m| || 6
[32;1m[Board] [0m  -------------------
[32;1m[Board] [0m5 || |[0;1mb[0m| |[7;1m [0m|[30;1mp[0m|[7;1m [0m| |[7;1m [0m|| 5
[32;1m[Board] [0m  -------------------
[32;1m[Board] [0m4 ||[7;1m [0m| |[7;1m [0m| |[7;1m [0m| |[0;1mQ[0m| || 4
[32;1m[Board] [0m  -------------------
[32;1m[Board] [0m3 || |[7;1m [0m| |[7;1m [0m|[0;1mp[0m|[7;1m [0m| |[7;1m [0m|| 3
[32;1m[Board] [0m  -------------------
[32;1m[Board] [0m2 ||[0;1mp[0m|[0;1mp[0m|[0;1mp[0m|[0;1mp[0m|[7;1m [0m|[0;1mp[0m|[0;1mp[0m|[0;1mp[0m|| 2
[32;1m[Board] [0m  -------------------
[32;1m[Board] [0m1 ||[0;1mr[0m|[0;1mk[0m|[0;1mb[0m|[7;1m [0m|[0;1mK[0m|[7;1m [0m|[0;1mk[0m|[0;1mr[0m|| 1
[32;1m[Board] [0m  -------------------
[32;1m[Board] [0m    a b c d e f g h
[32;1m[Board] [0m
[32;1m[Referee] [0mThis is the turn of the Black player...

    a   b   c   d   e   f   g   h 
8 | r |   | b | q | k | b | n | r  | 8
7 | p | p | p | p |   | p | p | p  | 7
6 |   |   | n |   |   |   |   |    | 6
5 |   | B |   |   | p |   |   |    | 5
4 |   |   |   |   |   |   | Q |    | 4
3 |   |   |   |   | P |   |   |    | 3
2 | P | P | P | P |   | P | P | P  | 2
1 | R | N | B |   | K |   | N | R  | 1
    a   b   c   d   e   f   g   h 

[32;1m[Game] [0mPlayer's error code: 0
[32;1m[Game] [0mChecking move validity...
[32;1m[Board] [0mInitializing board...
[32;1m[Board] [0mLoading history file `championship/lizzie-iii-git-gambit/history.csv`...
[32;1m[Board] [0mLoaded 5 move(s).
[32;1m[Board] [0mLoading move file `championship/lizzie-iii-git-gambit/move.csv`...
[32;1m[Board] [0mBlack player is playing f8 to c5.
[32;1m[Board] [0m
[32;1m[Board] [0m    a b c d e f g h 
[32;1m[Board] [0m  -------------------
[32;1m[Board] [0m8 ||[30;1mr[0m| |[30;1mb[0m|[30;1mQ[0m|[30;1mK[0m| |[30;1mk[0m|[30;1mr[0m|| 8
[32;1m[Board] [0m  -------------------
[32;1m[Board] [0m7 ||[30;1mp[0m|[30;1mp[0m|[30;1mp[0m|[30;1mp[0m| |[30;1mp[0m|[30;1mp[0m|[30;1mp[0m|| 7
[32;1m[Board] [0m  -------------------
[32;1m[Board] [0m6 ||[7;1m [0m| |[30;1mk[0m| |[7;1m [0m| |[7;1m [0m| || 6
[32;1m[Board] [0m  -------------------
[32;1m[Board] [0m5 || |[0;1mb[0m|[30;1mb[0m|[7;1m [0m|[30;1mp[0m|[7;1m [0m| |[7;1m [0m|| 5
[32;1m[Board] [0m  -------------------
[32;1m[Board] [0m4 ||[7;1m [0m| |[7;1m [0m| |[7;1m [0m| |[0;1mQ[0m| || 4
[32;1m[Board] [0m  -------------------
[32;1m[Board] [0m3 || |[7;1m [0m| |[7;1m [0m|[0;1mp[0m|[7;1m [0m| |[7;1m [0m|| 3
[32;1m[Board] [0m  -------------------
[32;1m[Board] [0m2 ||[0;1mp[0m|[0;1mp[0m|[0;1mp[0m|[0;1mp[0m|[7;1m [0m|[0;1mp[0m|[0;1mp[0m|[0;1mp[0m|| 2
[32;1m[Board] [0m  -------------------
[32;1m[Board] [0m1 ||[0;1mr[0m|[0;1mk[0m|[0;1mb[0m|[7;1m [0m|[0;1mK[0m|[7;1m [0m|[0;1mk[0m|[0;1mr[0m|| 1
[32;1m[Board] [0m  -------------------
[32;1m[Board] [0m    a b c d e f g h
[32;1m[Board] [0m
[32;1m[Referee] [0mThis is the turn of the White player...
Input file: championship/lizzie-iii-git-gambit/history.csv
Output file: championship/lizzie-iii-git-gambit/move.csv
We are playing as White
8 | [1;31mR[0m [1;30m_[0m [1;31mB[0m [1;31mQ[0m [1;31mK[0m [1;30m_[0m [1;31mN[0m [1;31mR[0m 
7 | [1;31mP[0m [1;31mP[0m [1;31mP[0m [1;31mP[0m [1;30m_[0m [1;31mP[0m [1;31mP[0m [1;31mP[0m 
6 | [1;30m_[0m [1;30m_[0m [1;31mN[0m [1;30m_[0m [1;30m_[0m [1;30m_[0m [1;30m_[0m [1;30m_[0m 
5 | [1;30m_[0m [1;32mB[0m [1;31mB[0m [1;30m_[0m [1;31mP[0m [1;30m_[0m [1;30m_[0m [1;30m_[0m 
4 | [1;30m_[0m [1;30m_[0m [1;30m_[0m [1;30m_[0m [1;30m_[0m [1;30m_[0m [1;32mQ[0m [1;30m_[0m 
3 | [1;30m_[0m [1;30m_[0m [1;30m_[0m [1;30m_[0m [1;32mP[0m [1;30m_[0m [1;30m_[0m [1;30m_[0m 
2 | [1;32mP[0m [1;32mP[0m [1;32mP[0m [1;32mP[0m [1;30m_[0m [1;32mP[0m [1;32mP[0m [1;32mP[0m 
1 | [1;32mR[0m [1;32mN[0m [1;32mB[0m [1;30m_[0m [1;32mK[0m [1;30m_[0m [1;32mN[0m [1;32mR[0m 
-------------------
  | A B C D E F G H 

It is white's turn to play.
Best move: g4g7
Evaluation: 325
Node count: 59982

Total time: 1483.28 ms
[32;1m[Game] [0mPlayer's error code: 0
[32;1m[Game] [0mChecking move validity...
[32;1m[Board] [0mInitializing board...
[32;1m[Board] [0mLoading history file `championship/lizzie-iii-git-gambit/history.csv`...
[32;1m[Board] [0mLoaded 6 move(s).
[32;1m[Board] [0mLoading move file `championship/lizzie-iii-git-gambit/move.csv`...
[32;1m[Board] [0mWhite player is playing g4 to g7.
[32;1m[Board] [0m[5;1mWhite Queen is taking Black Pawn.[0m
[32;1m[Board] [0m
[32;1m[Board] [0m    a b c d e f g h 
[32;1m[Board] [0m  -------------------
[32;1m[Board] [0m8 ||[30;1mr[0m| |[30;1mb[0m|[30;1mQ[0m|[30;1mK[0m| |[30;1mk[0m|[30;1mr[0m|| 8
[32;1m[Board] [0m  -------------------
[32;1m[Board] [0m7 ||[30;1mp[0m|[30;1mp[0m|[30;1mp[0m|[30;1mp[0m| |[30;1mp[0m|[0;1mQ[0m|[30;1mp[0m|| 7
[32;1m[Board] [0m  -------------------
[32;1m[Board] [0m6 ||[7;1m [0m| |[30;1mk[0m| |[7;1m [0m| |[7;1m [0m| || 6
[32;1m[Board] [0m  -------------------
[32;1m[Board] [0m5 || |[0;1mb[0m|[30;1mb[0m|[7;1m [0m|[30;1mp[0m|[7;1m [0m| |[7;1m [0m|| 5
[32;1m[Board] [0m  -------------------
[32;1m[Board] [0m4 ||[7;1m [0m| |[7;1m [0m| |[7;1m [0m| |[7;1m [0m| || 4
[32;1m[Board] [0m  -------------------
[32;1m[Board] [0m3 || |[7;1m [0m| |[7;1m [0m|[0;1mp[0m|[7;1m [0m| |[7;1m [0m|| 3
[32;1m[Board] [0m  -------------------
[32;1m[Board] [0m2 ||[0;1mp[0m|[0;1mp[0m|[0;1mp[0m|[0;1mp[0m|[7;1m [0m|[0;1mp[0m|[0;1mp[0m|[0;1mp[0m|| 2
[32;1m[Board] [0m  -------------------
[32;1m[Board] [0m1 ||[0;1mr[0m|[0;1mk[0m|[0;1mb[0m|[7;1m [0m|[0;1mK[0m|[7;1m [0m|[0;1mk[0m|[0;1mr[0m|| 1
[32;1m[Board] [0m  -------------------
[32;1m[Board] [0m    a b c d e f g h
[32;1m[Board] [0m
[32;1m[Referee] [0mThis is the turn of the Black player...

    a   b   c   d   e   f   g   h 
8 | r |   | b | q | k |   | n | r  | 8
7 | p | p | p | p |   | p | Q | p  | 7
6 |   |   | n |   |   |   |   |    | 6
5 |   | B | b |   | p |   |   |    | 5
4 |   |   |   |   |   |   |   |    | 4
3 |   |   |   |   | P |   |   |    | 3
2 | P | P | P | P |   | P | P | P  | 2
1 | R | N | B |   | K |   | N | R  | 1
    a   b   c   d   e   f   g   h 

[32;1m[Game] [0mPlayer's error code: 0
[32;1m[Game] [0mChecking move validity...
[32;1m[Board] [0mInitializing board...
[32;1m[Board] [0mLoading history file `championship/lizzie-iii-git-gambit/history.csv`...
[32;1m[Board] [0mLoaded 7 move(s).
[32;1m[Board] [0mLoading move file `championship/lizzie-iii-git-gambit/move.csv`...
[32;1m[Board] [0mBlack player is playing c5 to e3.
[32;1m[Board] [0m[5;1mBlack Bishop is taking White Pawn.[0m
[32;1m[Board] [0m
[32;1m[Board] [0m    a b c d e f g h 
[32;1m[Board] [0m  -------------------
[32;1m[Board] [0m8 ||[30;1mr[0m| |[30;1mb[0m|[30;1mQ[0m|[30;1mK[0m| |[30;1mk[0m|[30;1mr[0m|| 8
[32;1m[Board] [0m  -------------------
[32;1m[Board] [0m7 ||[30;1mp[0m|[30;1mp[0m|[30;1mp[0m|[30;1mp[0m| |[30;1mp[0m|[0;1mQ[0m|[30;1mp[0m|| 7
[32;1m[Board] [0m  -------------------
[32;1m[Board] [0m6 ||[7;1m [0m| |[30;1mk[0m| |[7;1m [0m| |[7;1m [0m| || 6
[32;1m[Board] [0m  -------------------
[32;1m[Board] [0m5 || |[0;1mb[0m| |[7;1m [0m|[30;1mp[0m|[7;1m [0m| |[7;1m [0m|| 5
[32;1m[Board] [0m  -------------------
[32;1m[Board] [0m4 ||[7;1m [0m| |[7;1m [0m| |[7;1m [0m| |[7;1m [0m| || 4
[32;1m[Board] [0m  -------------------
[32;1m[Board] [0m3 || |[7;1m [0m| |[7;1m [0m|[30;1mb[0m|[7;1m [0m| |[7;1m [0m|| 3
[32;1m[Board] [0m  -------------------
[32;1m[Board] [0m2 ||[0;1mp[0m|[0;1mp[0m|[0;1mp[0m|[0;1mp[0m|[7;1m [0m|[0;1mp[0m|[0;1mp[0m|[0;1mp[0m|| 2
[32;1m[Board] [0m  -------------------
[32;1m[Board] [0m1 ||[0;1mr[0m|[0;1mk[0m|[0;1mb[0m|[7;1m [0m|[0;1mK[0m|[7;1m [0m|[0;1mk[0m|[0;1mr[0m|| 1
[32;1m[Board] [0m  -------------------
[32;1m[Board] [0m    a b c d e f g h
[32;1m[Board] [0m
[32;1m[Referee] [0mThis is the turn of the White player...
Input file: championship/lizzie-iii-git-gambit/history.csv
Output file: championship/lizzie-iii-git-gambit/move.csv
We are playing as White
8 | [1;31mR[0m [1;30m_[0m [1;31mB[0m [1;31mQ[0m [1;31mK[0m [1;30m_[0m [1;31mN[0m [1;31mR[0m 
7 | [1;31mP[0m [1;31mP[0m [1;31mP[0m [1;31mP[0m [1;30m_[0m [1;31mP[0m [1;32mQ[0m [1;31mP[0m 
6 | [1;30m_[0m [1;30m_[0m [1;31mN[0m [1;30m_[0m [1;30m_[0m [1;30m_[0m [1;30m_[0m [1;30m_[0m 
5 | [1;30m_[0m [1;32mB[0m [1;30m_[0m [1;30m_[0m [1;31mP[0m [1;30m_[0m [1;30m_[0m [1;30m_[0m 
4 | [1;30m_[0m [1;30m_[0m [1;30m_[0m [1;30m_[0m [1;30m_[0m [1;30m_[0m [1;30m_[0m [1;30m_[0m 
3 | [1;30m_[0m [1;30m_[0m [1;30m_[0m [1;30m_[0m [1;31mB[0m [1;30m_[0m [1;30m_[0m [1;30m_[0m 
2 | [1;32mP[0m [1;32mP[0m [1;32mP[0m [1;32mP[0m [1;30m_[0m [1;32mP[0m [1;32mP[0m [1;32mP[0m 
1 | [1;32mR[0m [1;32mN[0m [1;32mB[0m [1;30m_[0m [1;32mK[0m [1;30m_[0m [1;32mN[0m [1;32mR[0m 
-------------------
  | A B C D E F G H 

It is white's turn to play.
Best move: g7h8
Evaluation: 655
Node count: 25581

Total time: 636.684 ms
[32;1m[Game] [0mPlayer's error code: 0
[32;1m[Game] [0mChecking move validity...
[32;1m[Board] [0mInitializing board...
[32;1m[Board] [0mLoading history file `championship/lizzie-iii-git-gambit/history.csv`...
[32;1m[Board] [0mLoaded 8 move(s).
[32;1m[Board] [0mLoading move file `championship/lizzie-iii-git-gambit/move.csv`...
[32;1m[Board] [0mWhite player is playing g7 to h8.
[32;1m[Board] [0m[5;1mWhite Queen is taking Black Rook.[0m
[32;1m[Board] [0m
[32;1m[Board] [0m    a b c d e f g h 
[32;1m[Board] [0m  -------------------
[32;1m[Board] [0m8 ||[30;1mr[0m| |[30;1mb[0m|[30;1mQ[0m|[30;1mK[0m| |[30;1mk[0m|[0;1mQ[0m|| 8
[32;1m[Board] [0m  -------------------
[32;1m[Board] [0m7 ||[30;1mp[0m|[30;1mp[0m|[30;1mp[0m|[30;1mp[0m| |[30;1mp[0m| |[30;1mp[0m|| 7
[32;1m[Board] [0m  -------------------
[32;1m[Board] [0m6 ||[7;1m [0m| |[30;1mk[0m| |[7;1m [0m| |[7;1m [0m| || 6
[32;1m[Board] [0m  -------------------
[32;1m[Board] [0m5 || |[0;1mb[0m| |[7;1m [0m|[30;1mp[0m|[7;1m [0m| |[7;1m [0m|| 5
[32;1m[Board] [0m  -------------------
[32;1m[Board] [0m4 ||[7;1m [0m| |[7;1m [0m| |[7;1m [0m| |[7;1m [0m| || 4
[32;1m[Board] [0m  -------------------
[32;1m[Board] [0m3 || |[7;1m [0m| |[7;1m [0m|[30;1mb[0m|[7;1m [0m| |[7;1m [0m|| 3
[32;1m[Board] [0m  -------------------
[32;1m[Board] [0m2 ||[0;1mp[0m|[0;1mp[0m|[0;1mp[0m|[0;1mp[0m|[7;1m [0m|[0;1mp[0m|[0;1mp[0m|[0;1mp[0m|| 2
[32;1m[Board] [0m  -------------------
[32;1m[Board] [0m1 ||[0;1mr[0m|[0;1mk[0m|[0;1mb[0m|[7;1m [0m|[0;1mK[0m|[7;1m [0m|[0;1mk[0m|[0;1mr[0m|| 1
[32;1m[Board] [0m  -------------------
[32;1m[Board] [0m    a b c d e f g h
[32;1m[Board] [0m
[32;1m[Referee] [0mThis is the turn of the Black player...

    a   b   c   d   e   f   g   h 
8 | r |   | b | q | k |   | n | Q  | 8
7 | p | p | p | p |   | p |   | p  | 7
6 |   |   | n |   |   |   |   |    | 6
5 |   | B |   |   | p |   |   |    | 5
4 |   |   |   |   |   |   |   |    | 4
3 |   |   |   |   | b |   |   |    | 3
2 | P | P | P | P |   | P | P | P  | 2
1 | R | N | B |   | K |   | N | R  | 1
    a   b   c   d   e   f   g   h 

[32;1m[Game] [0mPlayer's error code: 0
[32;1m[Game] [0mChecking move validity...
[32;1m[Board] [0mInitializing board...
[32;1m[Board] [0mLoading history file `championship/lizzie-iii-git-gambit/history.csv`...
[32;1m[Board] [0mLoaded 9 move(s).
[32;1m[Board] [0mLoading move file `championship/lizzie-iii-git-gambit/move.csv`...
[32;1m[Board] [0mBlack player is playing e3 to d2.
[32;1m[Board] [0m[5;1mBlack Bishop is taking White Pawn.[0m
[32;1m[Board] [0m
[32;1m[Board] [0m    a b c d e f g h 
[32;1m[Board] [0m  -------------------
[32;1m[Board] [0m8 ||[30;1mr[0m| |[30;1mb[0m|[30;1mQ[0m|[30;1mK[0m| |[30;1mk[0m|[0;1mQ[0m|| 8
[32;1m[Board] [0m  -------------------
[32;1m[Board] [0m7 ||[30;1mp[0m|[30;1mp[0m|[30;1mp[0m|[30;1mp[0m| |[30;1mp[0m| |[30;1mp[0m|| 7
[32;1m[Board] [0m  -------------------
[32;1m[Board] [0m6 ||[7;1m [0m| |[30;1mk[0m| |[7;1m [0m| |[7;1m [0m| || 6
[32;1m[Board] [0m  -------------------
[32;1m[Board] [0m5 || |[0;1mb[0m| |[7;1m [0m|[30;1mp[0m|[7;1m [0m| |[7;1m [0m|| 5
[32;1m[Board] [0m  -------------------
[32;1m[Board] [0m4 ||[7;1m [0m| |[7;1m [0m| |[7;1m [0m| |[7;1m [0m| || 4
[32;1m[Board] [0m  -------------------
[32;1m[Board] [0m3 || |[7;1m [0m| |[7;1m [0m| |[7;1m [0m| |[7;1m [0m|| 3
[32;1m[Board] [0m  -------------------
[32;1m[Board] [0m2 ||[0;1mp[0m|[0;1mp[0m|[0;1mp[0m|[30;1mb[0m|[7;1m [0m|[0;1mp[0m|[0;1mp[0m|[0;1mp[0m|| 2
[32;1m[Board] [0m  -------------------
[32;1m[Board] [0m1 ||[0;1mr[0m|[0;1mk[0m|[0;1mb[0m|[7;1m [0m|[0;1mK[0m|[7;1m [0m|[0;1mk[0m|[0;1mr[0m|| 1
[32;1m[Board] [0m  -------------------
[32;1m[Board] [0m    a b c d e f g h
[32;1m[Board] [0m
[32;1m[Referee] [0mThis is the turn of the White player...
[32;1m[Board] [0m[33;1m[WARNING][0m [5;1mWhite King in check![0m
[32;1m[Board] [0m[33;1m[WARNING][0m    Threatened by Black Bishop (d2)
Input file: championship/lizzie-iii-git-gambit/history.csv
Output file: championship/lizzie-iii-git-gambit/move.csv
We are playing as White
8 | [1;31mR[0m [1;30m_[0m [1;31mB[0m [1;31mQ[0m [1;31mK[0m [1;30m_[0m [1;31mN[0m [1;32mQ[0m 
7 | [1;31mP[0m [1;31mP[0m [1;31mP[0m [1;31mP[0m [1;30m_[0m [1;31mP[0m [1;30m_[0m [1;31mP[0m 
6 | [1;30m_[0m [1;30m_[0m [1;31mN[0m [1;30m_[0m [1;30m_[0m [1;30m_[0m [1;30m_[0m [1;30m_[0m 
5 | [1;30m_[0m [1;32mB[0m [1;30m_[0m [1;30m_[0m [1;31mP[0m [1;30m_[0m [1;30m_[0m [1;30m_[0m 
4 | [1;30m_[0m [1;30m_[0m [1;30m_[0m [1;30m_[0m [1;30m_[0m [1;30m_[0m [1;30m_[0m [1;30m_[0m 
3 | [1;30m_[0m [1;30m_[0m [1;30m_[0m [1;30m_[0m [1;30m_[0m [1;30m_[0m [1;30m_[0m [1;30m_[0m 
2 | [1;32mP[0m [1;32mP[0m [1;32mP[0m [1;31mB[0m [1;30m_[0m [1;32mP[0m [1;32mP[0m [1;32mP[0m 
1 | [1;32mR[0m [1;32mN[0m [1;32mB[0m [1;30m_[0m [1;32mK[0m [1;30m_[0m [1;32mN[0m [1;32mR[0m 
-------------------
  | A B C D E F G H 

It is white's turn to play.
Best move: b1d2
Evaluation: 1055
Node count: 10904

Total time: 241.714 ms
[32;1m[Game] [0mPlayer's error code: 0
[32;1m[Game] [0mChecking move validity...
[32;1m[Board] [0mInitializing board...
[32;1m[Board] [0mLoading history file `championship/lizzie-iii-git-gambit/history.csv`...
[32;1m[Board] [0mLoaded 10 move(s).
[32;1m[Board] [0mLoading move file `championship/lizzie-iii-git-gambit/move.csv`...
[32;1m[Board] [0mWhite player is playing b1 to d2.
[32;1m[Board] [0m[5;1mWhite Knight is taking Black Bishop.[0m
[32;1m[Board] [0m
[32;1m[Board] [0m    a b c d e f g h 
[32;1m[Board] [0m  -------------------
[32;1m[Board] [0m8 ||[30;1mr[0m| |[30;1mb[0m|[30;1mQ[0m|[30;1mK[0m| |[30;1mk[0m|[0;1mQ[0m|| 8
[32;1m[Board] [0m  -------------------
[32;1m[Board] [0m7 ||[30;1mp[0m|[30;1mp[0m|[30;1mp[0m|[30;1mp[0m| |[30;1mp[0m| |[30;1mp[0m|| 7
[32;1m[Board] [0m  -------------------
[32;1m[Board] [0m6 ||[7;1m [0m| |[30;1mk[0m| |[7;1m [0m| |[7;1m [0m| || 6
[32;1m[Board] [0m  -------------------
[32;1m[Board] [0m5 || |[0;1mb[0m| |[7;1m [0m|[30;1mp[0m|[7;1m [0m| |[7;1m [0m|| 5
[32;1m[Board] [0m  -------------------
[32;1m[Board] [0m4 ||[7;1m [0m| |[7;1m [0m| |[7;1m [0m| |[7;1m [0m| || 4
[32;1m[Board] [0m  -------------------
[32;1m[Board] [0m3 || |[7;1m [0m| |[7;1m [0m| |[7;1m [0m| |[7;1m [0m|| 3
[32;1m[Board] [0m  -------------------
[32;1m[Board] [0m2 ||[0;1mp[0m|[0;1mp[0m|[0;1mp[0m|[0;1mk[0m|[7;1m [0m|[0;1mp[0m|[0;1mp[0m|[0;1mp[0m|| 2
[32;1m[Board] [0m  -------------------
[32;1m[Board] [0m1 ||[0;1mr[0m|[7;1m [0m|[0;1mb[0m|[7;1m [0m|[0;1mK[0m|[7;1m [0m|[0;1mk[0m|[0;1mr[0m|| 1
[32;1m[Board] [0m  -------------------
[32;1m[Board] [0m    a b c d e f g h
[32;1m[Board] [0m
[32;1m[Referee] [0mThis is the turn of the Black player...

    a   b   c   d   e   f   g   h 
8 | r |   | b | q | k |   | n | Q  | 8
7 | p | p | p | p |   | p |   | p  | 7
6 |   |   | n |   |   |   |   |    | 6
5 |   | B |   |   | p |   |   |    | 5
4 |   |   |   |   |   |   |   |    | 4
3 |   |   |   |   |   |   |   |    | 3
2 | P | P | P | N |   | P | P | P  | 2
1 | R |   | B |   | K |   | N | R  | 1
    a   b   c   d   e   f   g   h 

[32;1m[Game] [0mPlayer's error code: 0
[32;1m[Game] [0mChecking move validity...
[32;1m[Board] [0mInitializing board...
[32;1m[Board] [0mLoading history file `championship/lizzie-iii-git-gambit/history.csv`...
[32;1m[Board] [0mLoaded 11 move(s).
[32;1m[Board] [0mLoading move file `championship/lizzie-iii-git-gambit/move.csv`...
[32;1m[Board] [0mBlack player is playing d7 to d6.
[32;1m[Board] [0m
[32;1m[Board] [0m    a b c d e f g h 
[32;1m[Board] [0m  -------------------
[32;1m[Board] [0m8 ||[30;1mr[0m| |[30;1mb[0m|[30;1mQ[0m|[30;1mK[0m| |[30;1mk[0m|[0;1mQ[0m|| 8
[32;1m[Board] [0m  -------------------
[32;1m[Board] [0m7 ||[30;1mp[0m|[30;1mp[0m|[30;1mp[0m|[7;1m [0m| |[30;1mp[0m| |[30;1mp[0m|| 7
[32;1m[Board] [0m  -------------------
[32;1m[Board] [0m6 ||[7;1m [0m| |[30;1mk[0m|[30;1mp[0m|[7;1m [0m| |[7;1m [0m| || 6
[32;1m[Board] [0m  -------------------
[32;1m[Board] [0m5 || |[0;1mb[0m| |[7;1m [0m|[30;1mp[0m|[7;1m [0m| |[7;1m [0m|| 5
[32;1m[Board] [0m  -------------------
[32;1m[Board] [0m4 ||[7;1m [0m| |[7;1m [0m| |[7;1m [0m| |[7;1m [0m| || 4
[32;1m[Board] [0m  -------------------
[32;1m[Board] [0m3 || |[7;1m [0m| |[7;1m [0m| |[7;1m [0m| |[7;1m [0m|| 3
[32;1m[Board] [0m  -------------------
[32;1m[Board] [0m2 ||[0;1mp[0m|[0;1mp[0m|[0;1mp[0m|[0;1mk[0m|[7;1m [0m|[0;1mp[0m|[0;1mp[0m|[0;1mp[0m|| 2
[32;1m[Board] [0m  -------------------
[32;1m[Board] [0m1 ||[0;1mr[0m|[7;1m [0m|[0;1mb[0m|[7;1m [0m|[0;1mK[0m|[7;1m [0m|[0;1mk[0m|[0;1mr[0m|| 1
[32;1m[Board] [0m  -------------------
[32;1m[Board] [0m    a b c d e f g h
[32;1m[Board] [0m
[32;1m[Referee] [0mThis is the turn of the White player...
Input file: championship/lizzie-iii-git-gambit/history.csv
Output file: championship/lizzie-iii-git-gambit/move.csv
We are playing as White
8 | [1;31mR[0m [1;30m_[0m [1;31mB[0m [1;31mQ[0m [1;31mK[0m [1;30m_[0m [1;31mN[0m [1;32mQ[0m 
7 | [1;31mP[0m [1;31mP[0m [1;31mP[0m [1;30m_[0m [1;30m_[0m [1;31mP[0m [1;30m_[0m [1;31mP[0m 
6 | [1;30m_[0m [1;30m_[0m [1;31mN[0m [1;31mP[0m [1;30m_[0m [1;30m_[0m [1;30m_[0m [1;30m_[0m 
5 | [1;30m_[0m [1;32mB[0m [1;30m_[0m [1;30m_[0m [1;31mP[0m [1;30m_[0m [1;30m_[0m [1;30m_[0m 
4 | [1;30m_[0m [1;30m_[0m [1;30m_[0m [1;30m_[0m [1;30m_[0m [1;30m_[0m [1;30m_[0m [1;30m_[0m 
3 | [1;30m_[0m [1;30m_[0m [1;30m_[0m [1;30m_[0m [1;30m_[0m [1;30m_[0m [1;30m_[0m [1;30m_[0m 
2 | [1;32mP[0m [1;32mP[0m [1;32mP[0m [1;32mN[0m [1;30m_[0m [1;32mP[0m [1;32mP[0m [1;32mP[0m 
1 | [1;32mR[0m [1;30m_[0m [1;32mB[0m [1;30m_[0m [1;32mK[0m [1;30m_[0m [1;32mN[0m [1;32mR[0m 
-------------------
  | A B C D E F G H 

It is white's turn to play.
Best move: h8g8
Evaluation: 1355
Node count: 46331

Total time: 866.135 ms
[32;1m[Game] [0mPlayer's error code: 0
[32;1m[Game] [0mChecking move validity...
[32;1m[Board] [0mInitializing board...
[32;1m[Board] [0mLoading history file `championship/lizzie-iii-git-gambit/history.csv`...
[32;1m[Board] [0mLoaded 12 move(s).
[32;1m[Board] [0mLoading move file `championship/lizzie-iii-git-gambit/move.csv`...
[32;1m[Board] [0mWhite player is playing h8 to g8.
[32;1m[Board] [0m[5;1mWhite Queen is taking Black Knight.[0m
[32;1m[Board] [0m
[32;1m[Board] [0m    a b c d e f g h 
[32;1m[Board] [0m  -------------------
[32;1m[Board] [0m8 ||[30;1mr[0m| |[30;1mb[0m|[30;1mQ[0m|[30;1mK[0m| |[0;1mQ[0m| || 8
[32;1m[Board] [0m  -------------------
[32;1m[Board] [0m7 ||[30;1mp[0m|[30;1mp[0m|[30;1mp[0m|[7;1m [0m| |[30;1mp[0m| |[30;1mp[0m|| 7
[32;1m[Board] [0m  -------------------
[32;1m[Board] [0m6 ||[7;1m [0m| |[30;1mk[0m|[30;1mp[0m|[7;1m [0m| |[7;1m [0m| || 6
[32;1m[Board] [0m  -------------------
[32;1m[Board] [0m5 || |[0;1mb[0m| |[7;1m [0m|[30;1mp[0m|[7;1m [0m| |[7;1m [0m|| 5
[32;1m[Board] [0m  -------------------
[32;1m[Board] [0m4 ||[7;1m [0m| |[7;1m [0m| |[7;1m [0m| |[7;1m [0m| || 4
[32;1m[Board] [0m  -------------------
[32;1m[Board] [0m3 || |[7;1m [0m| |[7;1m [0m| |[7;1m [0m| |[7;1m [0m|| 3
[32;1m[Board] [0m  -------------------
[32;1m[Board] [0m2 ||[0;1mp[0m|[0;1mp[0m|[0;1mp[0m|[0;1mk[0m|[7;1m [0m|[0;1mp[0m|[0;1mp[0m|[0;1mp[0m|| 2
[32;1m[Board] [0m  -------------------
[32;1m[Board] [0m1 ||[0;1mr[0m|[7;1m [0m|[0;1mb[0m|[7;1m [0m|[0;1mK[0m|[7;1m [0m|[0;1mk[0m|[0;1mr[0m|| 1
[32;1m[Board] [0m  -------------------
[32;1m[Board] [0m    a b c d e f g h
[32;1m[Board] [0m
[32;1m[Referee] [0mThis is the turn of the Black player...
[32;1m[Board] [0m[33;1m[WARNING][0m [5;1mBlack King in check![0m
[32;1m[Board] [0m[33;1m[WARNING][0m    Threatened by White Queen (g8)

    a   b   c   d   e   f   g   h 
8 | r |   | b | q | k |   | Q |    | 8
7 | p | p | p |   |   | p |   | p  | 7
6 |   |   | n | p |   |   |   |    | 6
5 |   | B |   |   | p |   |   |    | 5
4 |   |   |   |   |   |   |   |    | 4
3 |   |   |   |   |   |   |   |    | 3
2 | P | P | P | N |   | P | P | P  | 2
1 | R |   | B |   | K |   | N | R  | 1
    a   b   c   d   e   f   g   h 

[32;1m[Game] [0mPlayer's error code: 0
[32;1m[Game] [0mChecking move validity...
[32;1m[Board] [0mInitializing board...
[32;1m[Board] [0mLoading history file `championship/lizzie-iii-git-gambit/history.csv`...
[32;1m[Board] [0mLoaded 13 move(s).
[32;1m[Board] [0mLoading move file `championship/lizzie-iii-git-gambit/move.csv`...
[32;1m[Board] [0mBlack player is playing e8 to d7.
[32;1m[Board] [0m
[32;1m[Board] [0m    a b c d e f g h 
[32;1m[Board] [0m  -------------------
[32;1m[Board] [0m8 ||[30;1mr[0m| |[30;1mb[0m|[30;1mQ[0m|[7;1m [0m| |[0;1mQ[0m| || 8
[32;1m[Board] [0m  -------------------
[32;1m[Board] [0m7 ||[30;1mp[0m|[30;1mp[0m|[30;1mp[0m|[30;1mK[0m| |[30;1mp[0m| |[30;1mp[0m|| 7
[32;1m[Board] [0m  -------------------
[32;1m[Board] [0m6 ||[7;1m [0m| |[30;1mk[0m|[30;1mp[0m|[7;1m [0m| |[7;1m [0m| || 6
[32;1m[Board] [0m  -------------------
[32;1m[Board] [0m5 || |[0;1mb[0m| |[7;1m [0m|[30;1mp[0m|[7;1m [0m| |[7;1m [0m|| 5
[32;1m[Board] [0m  -------------------
[32;1m[Board] [0m4 ||[7;1m [0m| |[7;1m [0m| |[7;1m [0m| |[7;1m [0m| || 4
[32;1m[Board] [0m  -------------------
[32;1m[Board] [0m3 || |[7;1m [0m| |[7;1m [0m| |[7;1m [0m| |[7;1m [0m|| 3
[32;1m[Board] [0m  -------------------
[32;1m[Board] [0m2 ||[0;1mp[0m|[0;1mp[0m|[0;1mp[0m|[0;1mk[0m|[7;1m [0m|[0;1mp[0m|[0;1mp[0m|[0;1mp[0m|| 2
[32;1m[Board] [0m  -------------------
[32;1m[Board] [0m1 ||[0;1mr[0m|[7;1m [0m|[0;1mb[0m|[7;1m [0m|[0;1mK[0m|[7;1m [0m|[0;1mk[0m|[0;1mr[0m|| 1
[32;1m[Board] [0m  -------------------
[32;1m[Board] [0m    a b c d e f g h
[32;1m[Board] [0m
[32;1m[Referee] [0mThis is the turn of the White player...
Input file: championship/lizzie-iii-git-gambit/history.csv
Output file: championship/lizzie-iii-git-gambit/move.csv
We are playing as White
8 | [1;31mR[0m [1;30m_[0m [1;31mB[0m [1;31mQ[0m [1;30m_[0m [1;30m_[0m [1;32mQ[0m [1;30m_[0m 
7 | [1;31mP[0m [1;31mP[0m [1;31mP[0m [1;31mK[0m [1;30m_[0m [1;31mP[0m [1;30m_[0m [1;31mP[0m 
6 | [1;30m_[0m [1;30m_[0m [1;31mN[0m [1;31mP[0m [1;30m_[0m [1;30m_[0m [1;30m_[0m [1;30m_[0m 
5 | [1;30m_[0m [1;32mB[0m [1;30m_[0m [1;30m_[0m [1;31mP[0m [1;30m_[0m [1;30m_[0m [1;30m_[0m 
4 | [1;30m_[0m [1;30m_[0m [1;30m_[0m [1;30m_[0m [1;30m_[0m [1;30m_[0m [1;30m_[0m [1;30m_[0m 
3 | [1;30m_[0m [1;30m_[0m [1;30m_[0m [1;30m_[0m [1;30m_[0m [1;30m_[0m [1;30m_[0m [1;30m_[0m 
2 | [1;32mP[0m [1;32mP[0m [1;32mP[0m [1;32mN[0m [1;30m_[0m [1;32mP[0m [1;32mP[0m [1;32mP[0m 
1 | [1;32mR[0m [1;30m_[0m [1;32mB[0m [1;30m_[0m [1;32mK[0m [1;30m_[0m [1;32mN[0m [1;32mR[0m 
-------------------
  | A B C D E F G H 

It is white's turn to play.
Best move: g8f7
Evaluation: 2020
Node count: 51764

Total time: 934.844 ms
[32;1m[Game] [0mPlayer's error code: 0
[32;1m[Game] [0mChecking move validity...
[32;1m[Board] [0mInitializing board...
[32;1m[Board] [0mLoading history file `championship/lizzie-iii-git-gambit/history.csv`...
[32;1m[Board] [0mLoaded 14 move(s).
[32;1m[Board] [0mLoading move file `championship/lizzie-iii-git-gambit/move.csv`...
[32;1m[Board] [0mWhite player is playing g8 to f7.
[32;1m[Board] [0m[5;1mWhite Queen is taking Black Pawn.[0m
[32;1m[Board] [0m
[32;1m[Board] [0m    a b c d e f g h 
[32;1m[Board] [0m  -------------------
[32;1m[Board] [0m8 ||[30;1mr[0m| |[30;1mb[0m|[30;1mQ[0m|[7;1m [0m| |[7;1m [0m| || 8
[32;1m[Board] [0m  -------------------
[32;1m[Board] [0m7 ||[30;1mp[0m|[30;1mp[0m|[30;1mp[0m|[30;1mK[0m| |[0;1mQ[0m| |[30;1mp[0m|| 7
[32;1m[Board] [0m  -------------------
[32;1m[Board] [0m6 ||[7;1m [0m| |[30;1mk[0m|[30;1mp[0m|[7;1m [0m| |[7;1m [0m| || 6
[32;1m[Board] [0m  -------------------
[32;1m[Board] [0m5 || |[0;1mb[0m| |[7;1m [0m|[30;1mp[0m|[7;1m [0m| |[7;1m [0m|| 5
[32;1m[Board] [0m  -------------------
[32;1m[Board] [0m4 ||[7;1m [0m| |[7;1m [0m| |[7;1m [0m| |[7;1m [0m| || 4
[32;1m[Board] [0m  -------------------
[32;1m[Board] [0m3 || |[7;1m [0m| |[7;1m [0m| |[7;1m [0m| |[7;1m [0m|| 3
[32;1m[Board] [0m  -------------------
[32;1m[Board] [0m2 ||[0;1mp[0m|[0;1mp[0m|[0;1mp[0m|[0;1mk[0m|[7;1m [0m|[0;1mp[0m|[0;1mp[0m|[0;1mp[0m|| 2
[32;1m[Board] [0m  -------------------
[32;1m[Board] [0m1 ||[0;1mr[0m|[7;1m [0m|[0;1mb[0m|[7;1m [0m|[0;1mK[0m|[7;1m [0m|[0;1mk[0m|[0;1mr[0m|| 1
[32;1m[Board] [0m  -------------------
[32;1m[Board] [0m    a b c d e f g h
[32;1m[Board] [0m
[32;1m[Referee] [0mThis is the turn of the Black player...
[32;1m[Board] [0m[33;1m[WARNING][0m [5;1mBlack King in check![0m
[32;1m[Board] [0m[33;1m[WARNING][0m    Threatened by White Queen (f7)

    a   b   c   d   e   f   g   h 
8 | r |   | b | q |   |   |   |    | 8
7 | p | p | p | k |   | Q |   | p  | 7
6 |   |   | n | p |   |   |   |    | 6
5 |   | B |   |   | p |   |   |    | 5
4 |   |   |   |   |   |   |   |    | 4
3 |   |   |   |   |   |   |   |    | 3
2 | P | P | P | N |   | P | P | P  | 2
1 | R |   | B |   | K |   | N | R  | 1
    a   b   c   d   e   f   g   h 

[32;1m[Game] [0mPlayer's error code: 0
[32;1m[Game] [0mChecking move validity...
[32;1m[Board] [0mInitializing board...
[32;1m[Board] [0mLoading history file `championship/lizzie-iii-git-gambit/history.csv`...
[32;1m[Board] [0mLoaded 15 move(s).
[32;1m[Board] [0mLoading move file `championship/lizzie-iii-git-gambit/move.csv`...
[32;1m[Board] [0mBlack player is playing d8 to e7.
[32;1m[Board] [0m
[32;1m[Board] [0m    a b c d e f g h 
[32;1m[Board] [0m  -------------------
[32;1m[Board] [0m8 ||[30;1mr[0m| |[30;1mb[0m| |[7;1m [0m| |[7;1m [0m| || 8
[32;1m[Board] [0m  -------------------
[32;1m[Board] [0m7 ||[30;1mp[0m|[30;1mp[0m|[30;1mp[0m|[30;1mK[0m|[30;1mQ[0m|[0;1mQ[0m| |[30;1mp[0m|| 7
[32;1m[Board] [0m  -------------------
[32;1m[Board] [0m6 ||[7;1m [0m| |[30;1mk[0m|[30;1mp[0m|[7;1m [0m| |[7;1m [0m| || 6
[32;1m[Board] [0m  -------------------
[32;1m[Board] [0m5 || |[0;1mb[0m| |[7;1m [0m|[30;1mp[0m|[7;1m [0m| |[7;1m [0m|| 5
[32;1m[Board] [0m  -------------------
[32;1m[Board] [0m4 ||[7;1m [0m| |[7;1m [0m| |[7;1m [0m| |[7;1m [0m| || 4
[32;1m[Board] [0m  -------------------
[32;1m[Board] [0m3 || |[7;1m [0m| |[7;1m [0m| |[7;1m [0m| |[7;1m [0m|| 3
[32;1m[Board] [0m  -------------------
[32;1m[Board] [0m2 ||[0;1mp[0m|[0;1mp[0m|[0;1mp[0m|[0;1mk[0m|[7;1m [0m|[0;1mp[0m|[0;1mp[0m|[0;1mp[0m|| 2
[32;1m[Board] [0m  -------------------
[32;1m[Board] [0m1 ||[0;1mr[0m|[7;1m [0m|[0;1mb[0m|[7;1m [0m|[0;1mK[0m|[7;1m [0m|[0;1mk[0m|[0;1mr[0m|| 1
[32;1m[Board] [0m  -------------------
[32;1m[Board] [0m    a b c d e f g h
[32;1m[Board] [0m
[32;1m[Referee] [0mThis is the turn of the White player...
Input file: championship/lizzie-iii-git-gambit/history.csv
Output file: championship/lizzie-iii-git-gambit/move.csv
We are playing as White
8 | [1;31mR[0m [1;30m_[0m [1;31mB[0m [1;30m_[0m [1;30m_[0m [1;30m_[0m [1;30m_[0m [1;30m_[0m 
7 | [1;31mP[0m [1;31mP[0m [1;31mP[0m [1;31mK[0m [1;31mQ[0m [1;32mQ[0m [1;30m_[0m [1;31mP[0m 
6 | [1;30m_[0m [1;30m_[0m [1;31mN[0m [1;31mP[0m [1;30m_[0m [1;30m_[0m [1;30m_[0m [1;30m_[0m 
5 | [1;30m_[0m [1;32mB[0m [1;30m_[0m [1;30m_[0m [1;31mP[0m [1;30m_[0m [1;30m_[0m [1;30m_[0m 
4 | [1;30m_[0m [1;30m_[0m [1;30m_[0m [1;30m_[0m [1;30m_[0m [1;30m_[0m [1;30m_[0m [1;30m_[0m 
3 | [1;30m_[0m [1;30m_[0m [1;30m_[0m [1;30m_[0m [1;30m_[0m [1;30m_[0m [1;30m_[0m [1;30m_[0m 
2 | [1;32mP[0m [1;32mP[0m [1;32mP[0m [1;32mN[0m [1;30m_[0m [1;32mP[0m [1;32mP[0m [1;32mP[0m 
1 | [1;32mR[0m [1;30m_[0m [1;32mB[0m [1;30m_[0m [1;32mK[0m [1;30m_[0m [1;32mN[0m [1;32mR[0m 
-------------------
  | A B C D E F G H 

It is white's turn to play.
Best move: f7g8
Evaluation: 1440
Node count: 52799

Total time: 1018.14 ms
[32;1m[Game] [0mPlayer's error code: 0
[32;1m[Game] [0mChecking move validity...
[32;1m[Board] [0mInitializing board...
[32;1m[Board] [0mLoading history file `championship/lizzie-iii-git-gambit/history.csv`...
[32;1m[Board] [0mLoaded 16 move(s).
[32;1m[Board] [0mLoading move file `championship/lizzie-iii-git-gambit/move.csv`...
[32;1m[Board] [0mWhite player is playing f7 to g8.
[32;1m[Board] [0m
[32;1m[Board] [0m    a b c d e f g h 
[32;1m[Board] [0m  -------------------
[32;1m[Board] [0m8 ||[30;1mr[0m| |[30;1mb[0m| |[7;1m [0m| |[0;1mQ[0m| || 8
[32;1m[Board] [0m  -------------------
[32;1m[Board] [0m7 ||[30;1mp[0m|[30;1mp[0m|[30;1mp[0m|[30;1mK[0m|[30;1mQ[0m|[7;1m [0m| |[30;1mp[0m|| 7
[32;1m[Board] [0m  -------------------
[32;1m[Board] [0m6 ||[7;1m [0m| |[30;1mk[0m|[30;1mp[0m|[7;1m [0m| |[7;1m [0m| || 6
[32;1m[Board] [0m  -------------------
[32;1m[Board] [0m5 || |[0;1mb[0m| |[7;1m [0m|[30;1mp[0m|[7;1m [0m| |[7;1m [0m|| 5
[32;1m[Board] [0m  -------------------
[32;1m[Board] [0m4 ||[7;1m [0m| |[7;1m [0m| |[7;1m [0m| |[7;1m [0m| || 4
[32;1m[Board] [0m  -------------------
[32;1m[Board] [0m3 || |[7;1m [0m| |[7;1m [0m| |[7;1m [0m| |[7;1m [0m|| 3
[32;1m[Board] [0m  -------------------
[32;1m[Board] [0m2 ||[0;1mp[0m|[0;1mp[0m|[0;1mp[0m|[0;1mk[0m|[7;1m [0m|[0;1mp[0m|[0;1mp[0m|[0;1mp[0m|| 2
[32;1m[Board] [0m  -------------------
[32;1m[Board] [0m1 ||[0;1mr[0m|[7;1m [0m|[0;1mb[0m|[7;1m [0m|[0;1mK[0m|[7;1m [0m|[0;1mk[0m|[0;1mr[0m|| 1
[32;1m[Board] [0m  -------------------
[32;1m[Board] [0m    a b c d e f g h
[32;1m[Board] [0m
[32;1m[Referee] [0mThis is the turn of the Black player...

    a   b   c   d   e   f   g   h 
8 | r |   | b |   |   |   | Q |    | 8
7 | p | p | p | k | q |   |   | p  | 7
6 |   |   | n | p |   |   |   |    | 6
5 |   | B |   |   | p |   |   |    | 5
4 |   |   |   |   |   |   |   |    | 4
3 |   |   |   |   |   |   |   |    | 3
2 | P | P | P | N |   | P | P | P  | 2
1 | R |   | B |   | K |   | N | R  | 1
    a   b   c   d   e   f   g   h 

[32;1m[Game] [0mPlayer's error code: 0
[32;1m[Game] [0mChecking move validity...
[32;1m[Board] [0mInitializing board...
[32;1m[Board] [0mLoading history file `championship/lizzie-iii-git-gambit/history.csv`...
[32;1m[Board] [0mLoaded 17 move(s).
[32;1m[Board] [0mLoading move file `championship/lizzie-iii-git-gambit/move.csv`...
[32;1m[Board] [0mBlack player is playing e7 to f8.
[32;1m[Board] [0m
[32;1m[Board] [0m    a b c d e f g h 
[32;1m[Board] [0m  -------------------
[32;1m[Board] [0m8 ||[30;1mr[0m| |[30;1mb[0m| |[7;1m [0m|[30;1mQ[0m|[0;1mQ[0m| || 8
[32;1m[Board] [0m  -------------------
[32;1m[Board] [0m7 ||[30;1mp[0m|[30;1mp[0m|[30;1mp[0m|[30;1mK[0m| |[7;1m [0m| |[30;1mp[0m|| 7
[32;1m[Board] [0m  -------------------
[32;1m[Board] [0m6 ||[7;1m [0m| |[30;1mk[0m|[30;1mp[0m|[7;1m [0m| |[7;1m [0m| || 6
[32;1m[Board] [0m  -------------------
[32;1m[Board] [0m5 || |[0;1mb[0m| |[7;1m [0m|[30;1mp[0m|[7;1m [0m| |[7;1m [0m|| 5
[32;1m[Board] [0m  -------------------
[32;1m[Board] [0m4 ||[7;1m [0m| |[7;1m [0m| |[7;1m [0m| |[7;1m [0m| || 4
[32;1m[Board] [0m  -------------------
[32;1m[Board] [0m3 || |[7;1m [0m| |[7;1m [0m| |[7;1m [0m| |[7;1m [0m|| 3
[32;1m[Board] [0m  -------------------
[32;1m[Board] [0m2 ||[0;1mp[0m|[0;1mp[0m|[0;1mp[0m|[0;1mk[0m|[7;1m [0m|[0;1mp[0m|[0;1mp[0m|[0;1mp[0m|| 2
[32;1m[Board] [0m  -------------------
[32;1m[Board] [0m1 ||[0;1mr[0m|[7;1m [0m|[0;1mb[0m|[7;1m [0m|[0;1mK[0m|[7;1m [0m|[0;1mk[0m|[0;1mr[0m|| 1
[32;1m[Board] [0m  -------------------
[32;1m[Board] [0m    a b c d e f g h
[32;1m[Board] [0m
[32;1m[Referee] [0mThis is the turn of the White player...
Input file: championship/lizzie-iii-git-gambit/history.csv
Output file: championship/lizzie-iii-git-gambit/move.csv
We are playing as White
8 | [1;31mR[0m [1;30m_[0m [1;31mB[0m [1;30m_[0m [1;30m_[0m [1;31mQ[0m [1;32mQ[0m [1;30m_[0m 
7 | [1;31mP[0m [1;31mP[0m [1;31mP[0m [1;31mK[0m [1;30m_[0m [1;30m_[0m [1;30m_[0m [1;31mP[0m 
6 | [1;30m_[0m [1;30m_[0m [1;31mN[0m [1;31mP[0m [1;30m_[0m [1;30m_[0m [1;30m_[0m [1;30m_[0m 
5 | [1;30m_[0m [1;32mB[0m [1;30m_[0m [1;30m_[0m [1;31mP[0m [1;30m_[0m [1;30m_[0m [1;30m_[0m 
4 | [1;30m_[0m [1;30m_[0m [1;30m_[0m [1;30m_[0m [1;30m_[0m [1;30m_[0m [1;30m_[0m [1;30m_[0m 
3 | [1;30m_[0m [1;30m_[0m [1;30m_[0m [1;30m_[0m [1;30m_[0m [1;30m_[0m [1;30m_[0m [1;30m_[0m 
2 | [1;32mP[0m [1;32mP[0m [1;32mP[0m [1;32mN[0m [1;30m_[0m [1;32mP[0m [1;32mP[0m [1;32mP[0m 
1 | [1;32mR[0m [1;30m_[0m [1;32mB[0m [1;30m_[0m [1;32mK[0m [1;30m_[0m [1;32mN[0m [1;32mR[0m 
-------------------
  | A B C D E F G H 

It is white's turn to play.
Best move: g8f8
Evaluation: 2345
Node count: 53177

Total time: 959.899 ms
[32;1m[Game] [0mPlayer's error code: 0
[32;1m[Game] [0mChecking move validity...
[32;1m[Board] [0mInitializing board...
[32;1m[Board] [0mLoading history file `championship/lizzie-iii-git-gambit/history.csv`...
[32;1m[Board] [0mLoaded 18 move(s).
[32;1m[Board] [0mLoading move file `championship/lizzie-iii-git-gambit/move.csv`...
[32;1m[Board] [0mWhite player is playing g8 to f8.
[32;1m[Board] [0m[5;1mWhite Queen is taking Black Queen.[0m
[32;1m[Board] [0m
[32;1m[Board] [0m    a b c d e f g h 
[32;1m[Board] [0m  -------------------
[32;1m[Board] [0m8 ||[30;1mr[0m| |[30;1mb[0m| |[7;1m [0m|[0;1mQ[0m|[7;1m [0m| || 8
[32;1m[Board] [0m  -------------------
[32;1m[Board] [0m7 ||[30;1mp[0m|[30;1mp[0m|[30;1mp[0m|[30;1mK[0m| |[7;1m [0m| |[30;1mp[0m|| 7
[32;1m[Board] [0m  -------------------
[32;1m[Board] [0m6 ||[7;1m [0m| |[30;1mk[0m|[30;1mp[0m|[7;1m [0m| |[7;1m [0m| || 6
[32;1m[Board] [0m  -------------------
[32;1m[Board] [0m5 || |[0;1mb[0m| |[7;1m [0m|[30;1mp[0m|[7;1m [0m| |[7;1m [0m|| 5
[32;1m[Board] [0m  -------------------
[32;1m[Board] [0m4 ||[7;1m [0m| |[7;1m [0m| |[7;1m [0m| |[7;1m [0m| || 4
[32;1m[Board] [0m  -------------------
[32;1m[Board] [0m3 || |[7;1m [0m| |[7;1m [0m| |[7;1m [0m| |[7;1m [0m|| 3
[32;1m[Board] [0m  -------------------
[32;1m[Board] [0m2 ||[0;1mp[0m|[0;1mp[0m|[0;1mp[0m|[0;1mk[0m|[7;1m [0m|[0;1mp[0m|[0;1mp[0m|[0;1mp[0m|| 2
[32;1m[Board] [0m  -------------------
[32;1m[Board] [0m1 ||[0;1mr[0m|[7;1m [0m|[0;1mb[0m|[7;1m [0m|[0;1mK[0m|[7;1m [0m|[0;1mk[0m|[0;1mr[0m|| 1
[32;1m[Board] [0m  -------------------
[32;1m[Board] [0m    a b c d e f g h
[32;1m[Board] [0m
[32;1m[Referee] [0mThis is the turn of the Black player...

    a   b   c   d   e   f   g   h 
8 | r |   | b |   |   | Q |   |    | 8
7 | p | p | p | k |   |   |   | p  | 7
6 |   |   | n | p |   |   |   |    | 6
5 |   | B |   |   | p |   |   |    | 5
4 |   |   |   |   |   |   |   |    | 4
3 |   |   |   |   |   |   |   |    | 3
2 | P | P | P | N |   | P | P | P  | 2
1 | R |   | B |   | K |   | N | R  | 1
    a   b   c   d   e   f   g   h 

[32;1m[Game] [0mPlayer's error code: 0
[32;1m[Game] [0mChecking move validity...
[32;1m[Board] [0mInitializing board...
[32;1m[Board] [0mLoading history file `championship/lizzie-iii-git-gambit/history.csv`...
[32;1m[Board] [0mLoaded 19 move(s).
[32;1m[Board] [0mLoading move file `championship/lizzie-iii-git-gambit/move.csv`...
[32;1m[Board] [0mBlack player is playing d6 to d5.
[32;1m[Board] [0m
[32;1m[Board] [0m    a b c d e f g h 
[32;1m[Board] [0m  -------------------
[32;1m[Board] [0m8 ||[30;1mr[0m| |[30;1mb[0m| |[7;1m [0m|[0;1mQ[0m|[7;1m [0m| || 8
[32;1m[Board] [0m  -------------------
[32;1m[Board] [0m7 ||[30;1mp[0m|[30;1mp[0m|[30;1mp[0m|[30;1mK[0m| |[7;1m [0m| |[30;1mp[0m|| 7
[32;1m[Board] [0m  -------------------
[32;1m[Board] [0m6 ||[7;1m [0m| |[30;1mk[0m| |[7;1m [0m| |[7;1m [0m| || 6
[32;1m[Board] [0m  -------------------
[32;1m[Board] [0m5 || |[0;1mb[0m| |[30;1mp[0m|[30;1mp[0m|[7;1m [0m| |[7;1m [0m|| 5
[32;1m[Board] [0m  -------------------
[32;1m[Board] [0m4 ||[7;1m [0m| |[7;1m [0m| |[7;1m [0m| |[7;1m [0m| || 4
[32;1m[Board] [0m  -------------------
[32;1m[Board] [0m3 || |[7;1m [0m| |[7;1m [0m| |[7;1m [0m| |[7;1m [0m|| 3
[32;1m[Board] [0m  -------------------
[32;1m[Board] [0m2 ||[0;1mp[0m|[0;1mp[0m|[0;1mp[0m|[0;1mk[0m|[7;1m [0m|[0;1mp[0m|[0;1mp[0m|[0;1mp[0m|| 2
[32;1m[Board] [0m  -------------------
[32;1m[Board] [0m1 ||[0;1mr[0m|[7;1m [0m|[0;1mb[0m|[7;1m [0m|[0;1mK[0m|[7;1m [0m|[0;1mk[0m|[0;1mr[0m|| 1
[32;1m[Board] [0m  -------------------
[32;1m[Board] [0m    a b c d e f g h
[32;1m[Board] [0m
[32;1m[Referee] [0mThis is the turn of the White player...
Input file: championship/lizzie-iii-git-gambit/history.csv
Output file: championship/lizzie-iii-git-gambit/move.csv
We are playing as White
8 | [1;31mR[0m [1;30m_[0m [1;31mB[0m [1;30m_[0m [1;30m_[0m [1;32mQ[0m [1;30m_[0m [1;30m_[0m 
7 | [1;31mP[0m [1;31mP[0m [1;31mP[0m [1;31mK[0m [1;30m_[0m [1;30m_[0m [1;30m_[0m [1;31mP[0m 
6 | [1;30m_[0m [1;30m_[0m [1;31mN[0m [1;30m_[0m [1;30m_[0m [1;30m_[0m [1;30m_[0m [1;30m_[0m 
5 | [1;30m_[0m [1;32mB[0m [1;30m_[0m [1;31mP[0m [1;31mP[0m [1;30m_[0m [1;30m_[0m [1;30m_[0m 
4 | [1;30m_[0m [1;30m_[0m [1;30m_[0m [1;30m_[0m [1;30m_[0m [1;30m_[0m [1;30m_[0m [1;30m_[0m 
3 | [1;30m_[0m [1;30m_[0m [1;30m_[0m [1;30m_[0m [1;30m_[0m [1;30m_[0m [1;30m_[0m [1;30m_[0m 
2 | [1;32mP[0m [1;32mP[0m [1;32mP[0m [1;32mN[0m [1;30m_[0m [1;32mP[0m [1;32mP[0m [1;32mP[0m 
1 | [1;32mR[0m [1;30m_[0m [1;32mB[0m [1;30m_[0m [1;32mK[0m [1;30m_[0m [1;32mN[0m [1;32mR[0m 
-------------------
  | A B C D E F G H 

It is white's turn to play.
Best move: f8h8
Evaluation: 2350
Node count: 15917

Total time: 278.425 ms
[32;1m[Game] [0mPlayer's error code: 0
[32;1m[Game] [0mChecking move validity...
[32;1m[Board] [0mInitializing board...
[32;1m[Board] [0mLoading history file `championship/lizzie-iii-git-gambit/history.csv`...
[32;1m[Board] [0mLoaded 20 move(s).
[32;1m[Board] [0mLoading move file `championship/lizzie-iii-git-gambit/move.csv`...
[32;1m[Board] [0mWhite player is playing f8 to h8.
[32;1m[Board] [0m
[32;1m[Board] [0m    a b c d e f g h 
[32;1m[Board] [0m  -------------------
[32;1m[Board] [0m8 ||[30;1mr[0m| |[30;1mb[0m| |[7;1m [0m| |[7;1m [0m|[0;1mQ[0m|| 8
[32;1m[Board] [0m  -------------------
[32;1m[Board] [0m7 ||[30;1mp[0m|[30;1mp[0m|[30;1mp[0m|[30;1mK[0m| |[7;1m [0m| |[30;1mp[0m|| 7
[32;1m[Board] [0m  -------------------
[32;1m[Board] [0m6 ||[7;1m [0m| |[30;1mk[0m| |[7;1m [0m| |[7;1m [0m| || 6
[32;1m[Board] [0m  -------------------
[32;1m[Board] [0m5 || |[0;1mb[0m| |[30;1mp[0m|[30;1mp[0m|[7;1m [0m| |[7;1m [0m|| 5
[32;1m[Board] [0m  -------------------
[32;1m[Board] [0m4 ||[7;1m [0m| |[7;1m [0m| |[7;1m [0m| |[7;1m [0m| || 4
[32;1m[Board] [0m  -------------------
[32;1m[Board] [0m3 || |[7;1m [0m| |[7;1m [0m| |[7;1m [0m| |[7;1m [0m|| 3
[32;1m[Board] [0m  -------------------
[32;1m[Board] [0m2 ||[0;1mp[0m|[0;1mp[0m|[0;1mp[0m|[0;1mk[0m|[7;1m [0m|[0;1mp[0m|[0;1mp[0m|[0;1mp[0m|| 2
[32;1m[Board] [0m  -------------------
[32;1m[Board] [0m1 ||[0;1mr[0m|[7;1m [0m|[0;1mb[0m|[7;1m [0m|[0;1mK[0m|[7;1m [0m|[0;1mk[0m|[0;1mr[0m|| 1
[32;1m[Board] [0m  -------------------
[32;1m[Board] [0m    a b c d e f g h
[32;1m[Board] [0m
[32;1m[Referee] [0mThis is the turn of the Black player...

    a   b   c   d   e   f   g   h 
8 | r |   | b |   |   |   |   | Q  | 8
7 | p | p | p | k |   |   |   | p  | 7
6 |   |   | n |   |   |   |   |    | 6
5 |   | B |   | p | p |   |   |    | 5
4 |   |   |   |   |   |   |   |    | 4
3 |   |   |   |   |   |   |   |    | 3
2 | P | P | P | N |   | P | P | P  | 2
1 | R |   | B |   | K |   | N | R  | 1
    a   b   c   d   e   f   g   h 

[32;1m[Game] [0mPlayer's error code: 0
[32;1m[Game] [0mChecking move validity...
[32;1m[Board] [0mInitializing board...
[32;1m[Board] [0mLoading history file `championship/lizzie-iii-git-gambit/history.csv`...
[32;1m[Board] [0mLoaded 21 move(s).
[32;1m[Board] [0mLoading move file `championship/lizzie-iii-git-gambit/move.csv`...
[32;1m[Board] [0mBlack player is playing h7 to h5.
[32;1m[Board] [0m
[32;1m[Board] [0m    a b c d e f g h 
[32;1m[Board] [0m  -------------------
[32;1m[Board] [0m8 ||[30;1mr[0m| |[30;1mb[0m| |[7;1m [0m| |[7;1m [0m|[0;1mQ[0m|| 8
[32;1m[Board] [0m  -------------------
[32;1m[Board] [0m7 ||[30;1mp[0m|[30;1mp[0m|[30;1mp[0m|[30;1mK[0m| |[7;1m [0m| |[7;1m [0m|| 7
[32;1m[Board] [0m  -------------------
[32;1m[Board] [0m6 ||[7;1m [0m| |[30;1mk[0m| |[7;1m [0m| |[7;1m [0m| || 6
[32;1m[Board] [0m  -------------------
[32;1m[Board] [0m5 || |[0;1mb[0m| |[30;1mp[0m|[30;1mp[0m|[7;1m [0m| |[30;1mp[0m|| 5
[32;1m[Board] [0m  -------------------
[32;1m[Board] [0m4 ||[7;1m [0m| |[7;1m [0m| |[7;1m [0m| |[7;1m [0m| || 4
[32;1m[Board] [0m  -------------------
[32;1m[Board] [0m3 || |[7;1m [0m| |[7;1m [0m| |[7;1m [0m| |[7;1m [0m|| 3
[32;1m[Board] [0m  -------------------
[32;1m[Board] [0m2 ||[0;1mp[0m|[0;1mp[0m|[0;1mp[0m|[0;1mk[0m|[7;1m [0m|[0;1mp[0m|[0;1mp[0m|[0;1mp[0m|| 2
[32;1m[Board] [0m  -------------------
[32;1m[Board] [0m1 ||[0;1mr[0m|[7;1m [0m|[0;1mb[0m|[7;1m [0m|[0;1mK[0m|[7;1m [0m|[0;1mk[0m|[0;1mr[0m|| 1
[32;1m[Board] [0m  -------------------
[32;1m[Board] [0m    a b c d e f g h
[32;1m[Board] [0m
[32;1m[Referee] [0mThis is the turn of the White player...
Input file: championship/lizzie-iii-git-gambit/history.csv
Output file: championship/lizzie-iii-git-gambit/move.csv
We are playing as White
8 | [1;31mR[0m [1;30m_[0m [1;31mB[0m [1;30m_[0m [1;30m_[0m [1;30m_[0m [1;30m_[0m [1;32mQ[0m 
7 | [1;31mP[0m [1;31mP[0m [1;31mP[0m [1;31mK[0m [1;30m_[0m [1;30m_[0m [1;30m_[0m [1;30m_[0m 
6 | [1;30m_[0m [1;30m_[0m [1;31mN[0m [1;30m_[0m [1;30m_[0m [1;30m_[0m [1;30m_[0m [1;30m_[0m 
5 | [1;30m_[0m [1;32mB[0m [1;30m_[0m [1;31mP[0m [1;31mP[0m [1;30m_[0m [1;30m_[0m [1;31mP[0m 
4 | [1;30m_[0m [1;30m_[0m [1;30m_[0m [1;30m_[0m [1;30m_[0m [1;30m_[0m [1;30m_[0m [1;30m_[0m 
3 | [1;30m_[0m [1;30m_[0m [1;30m_[0m [1;30m_[0m [1;30m_[0m [1;30m_[0m [1;30m_[0m [1;30m_[0m 
2 | [1;32mP[0m [1;32mP[0m [1;32mP[0m [1;32mN[0m [1;30m_[0m [1;32mP[0m [1;32mP[0m [1;32mP[0m 
1 | [1;32mR[0m [1;30m_[0m [1;32mB[0m [1;30m_[0m [1;32mK[0m [1;30m_[0m [1;32mN[0m [1;32mR[0m 
-------------------
  | A B C D E F G H 

It is white's turn to play.
Best move: b5c6
Evaluation: 2345
Node count: 10067

Total time: 176.281 ms
[32;1m[Game] [0mPlayer's error code: 0
[32;1m[Game] [0mChecking move validity...
[32;1m[Board] [0mInitializing board...
[32;1m[Board] [0mLoading history file `championship/lizzie-iii-git-gambit/history.csv`...
[32;1m[Board] [0mLoaded 22 move(s).
[32;1m[Board] [0mLoading move file `championship/lizzie-iii-git-gambit/move.csv`...
[32;1m[Board] [0mWhite player is playing b5 to c6.
[32;1m[Board] [0m[5;1mWhite Bishop is taking Black Knight.[0m
[32;1m[Board] [0m
[32;1m[Board] [0m    a b c d e f g h 
[32;1m[Board] [0m  -------------------
[32;1m[Board] [0m8 ||[30;1mr[0m| |[30;1mb[0m| |[7;1m [0m| |[7;1m [0m|[0;1mQ[0m|| 8
[32;1m[Board] [0m  -------------------
[32;1m[Board] [0m7 ||[30;1mp[0m|[30;1mp[0m|[30;1mp[0m|[30;1mK[0m| |[7;1m [0m| |[7;1m [0m|| 7
[32;1m[Board] [0m  -------------------
[32;1m[Board] [0m6 ||[7;1m [0m| |[0;1mb[0m| |[7;1m [0m| |[7;1m [0m| || 6
[32;1m[Board] [0m  -------------------
[32;1m[Board] [0m5 || |[7;1m [0m| |[30;1mp[0m|[30;1mp[0m|[7;1m [0m| |[30;1mp[0m|| 5
[32;1m[Board] [0m  -------------------
[32;1m[Board] [0m4 ||[7;1m [0m| |[7;1m [0m| |[7;1m [0m| |[7;1m [0m| || 4
[32;1m[Board] [0m  -------------------
[32;1m[Board] [0m3 || |[7;1m [0m| |[7;1m [0m| |[7;1m [0m| |[7;1m [0m|| 3
[32;1m[Board] [0m  -------------------
[32;1m[Board] [0m2 ||[0;1mp[0m|[0;1mp[0m|[0;1mp[0m|[0;1mk[0m|[7;1m [0m|[0;1mp[0m|[0;1mp[0m|[0;1mp[0m|| 2
[32;1m[Board] [0m  -------------------
[32;1m[Board] [0m1 ||[0;1mr[0m|[7;1m [0m|[0;1mb[0m|[7;1m [0m|[0;1mK[0m|[7;1m [0m|[0;1mk[0m|[0;1mr[0m|| 1
[32;1m[Board] [0m  -------------------
[32;1m[Board] [0m    a b c d e f g h
[32;1m[Board] [0m
[32;1m[Referee] [0mThis is the turn of the Black player...
[32;1m[Board] [0m[33;1m[WARNING][0m [5;1mBlack King in check![0m
[32;1m[Board] [0m[33;1m[WARNING][0m    Threatened by White Bishop (c6)

    a   b   c   d   e   f   g   h 
8 | r |   | b |   |   |   |   | Q  | 8
7 | p | p | p | k |   |   |   |    | 7
6 |   |   | B |   |   |   |   |    | 6
5 |   |   |   | p | p |   |   | p  | 5
4 |   |   |   |   |   |   |   |    | 4
3 |   |   |   |   |   |   |   |    | 3
2 | P | P | P | N |   | P | P | P  | 2
1 | R |   | B |   | K |   | N | R  | 1
    a   b   c   d   e   f   g   h 

[32;1m[Game] [0mPlayer's error code: 0
[32;1m[Game] [0mChecking move validity...
[32;1m[Board] [0mInitializing board...
[32;1m[Board] [0mLoading history file `championship/lizzie-iii-git-gambit/history.csv`...
[32;1m[Board] [0mLoaded 23 move(s).
[32;1m[Board] [0mLoading move file `championship/lizzie-iii-git-gambit/move.csv`...
[32;1m[Board] [0mBlack player is playing b7 to c6.
[32;1m[Board] [0m[5;1mBlack Pawn is taking White Bishop.[0m
[32;1m[Board] [0m
[32;1m[Board] [0m    a b c d e f g h 
[32;1m[Board] [0m  -------------------
[32;1m[Board] [0m8 ||[30;1mr[0m| |[30;1mb[0m| |[7;1m [0m| |[7;1m [0m|[0;1mQ[0m|| 8
[32;1m[Board] [0m  -------------------
[32;1m[Board] [0m7 ||[30;1mp[0m|[7;1m [0m|[30;1mp[0m|[30;1mK[0m| |[7;1m [0m| |[7;1m [0m|| 7
[32;1m[Board] [0m  -------------------
[32;1m[Board] [0m6 ||[7;1m [0m| |[30;1mp[0m| |[7;1m [0m| |[7;1m [0m| || 6
[32;1m[Board] [0m  -------------------
[32;1m[Board] [0m5 || |[7;1m [0m| |[30;1mp[0m|[30;1mp[0m|[7;1m [0m| |[30;1mp[0m|| 5
[32;1m[Board] [0m  -------------------
[32;1m[Board] [0m4 ||[7;1m [0m| |[7;1m [0m| |[7;1m [0m| |[7;1m [0m| || 4
[32;1m[Board] [0m  -------------------
[32;1m[Board] [0m3 || |[7;1m [0m| |[7;1m [0m| |[7;1m [0m| |[7;1m [0m|| 3
[32;1m[Board] [0m  -------------------
[32;1m[Board] [0m2 ||[0;1mp[0m|[0;1mp[0m|[0;1mp[0m|[0;1mk[0m|[7;1m [0m|[0;1mp[0m|[0;1mp[0m|[0;1mp[0m|| 2
[32;1m[Board] [0m  -------------------
[32;1m[Board] [0m1 ||[0;1mr[0m|[7;1m [0m|[0;1mb[0m|[7;1m [0m|[0;1mK[0m|[7;1m [0m|[0;1mk[0m|[0;1mr[0m|| 1
[32;1m[Board] [0m  -------------------
[32;1m[Board] [0m    a b c d e f g h
[32;1m[Board] [0m
[32;1m[Referee] [0mThis is the turn of the White player...
Input file: championship/lizzie-iii-git-gambit/history.csv
Output file: championship/lizzie-iii-git-gambit/move.csv
We are playing as White
8 | [1;31mR[0m [1;30m_[0m [1;31mB[0m [1;30m_[0m [1;30m_[0m [1;30m_[0m [1;30m_[0m [1;32mQ[0m 
7 | [1;31mP[0m [1;30m_[0m [1;31mP[0m [1;31mK[0m [1;30m_[0m [1;30m_[0m [1;30m_[0m [1;30m_[0m 
6 | [1;30m_[0m [1;30m_[0m [1;31mP[0m [1;30m_[0m [1;30m_[0m [1;30m_[0m [1;30m_[0m [1;30m_[0m 
5 | [1;30m_[0m [1;30m_[0m [1;30m_[0m [1;31mP[0m [1;31mP[0m [1;30m_[0m [1;30m_[0m [1;31mP[0m 
4 | [1;30m_[0m [1;30m_[0m [1;30m_[0m [1;30m_[0m [1;30m_[0m [1;30m_[0m [1;30m_[0m [1;30m_[0m 
3 | [1;30m_[0m [1;30m_[0m [1;30m_[0m [1;30m_[0m [1;30m_[0m [1;30m_[0m [1;30m_[0m [1;30m_[0m 
2 | [1;32mP[0m [1;32mP[0m [1;32mP[0m [1;32mN[0m [1;30m_[0m [1;32mP[0m [1;32mP[0m [1;32mP[0m 
1 | [1;32mR[0m [1;30m_[0m [1;32mB[0m [1;30m_[0m [1;32mK[0m [1;30m_[0m [1;32mN[0m [1;32mR[0m 
-------------------
  | A B C D E F G H 

It is white's turn to play.
Best move: h8g7
Evaluation: 2315
Node count: 7354

Total time: 132.805 ms
[32;1m[Game] [0mPlayer's error code: 0
[32;1m[Game] [0mChecking move validity...
[32;1m[Board] [0mInitializing board...
[32;1m[Board] [0mLoading history file `championship/lizzie-iii-git-gambit/history.csv`...
[32;1m[Board] [0mLoaded 24 move(s).
[32;1m[Board] [0mLoading move file `championship/lizzie-iii-git-gambit/move.csv`...
[32;1m[Board] [0mWhite player is playing h8 to g7.
[32;1m[Board] [0m
[32;1m[Board] [0m    a b c d e f g h 
[32;1m[Board] [0m  -------------------
[32;1m[Board] [0m8 ||[30;1mr[0m| |[30;1mb[0m| |[7;1m [0m| |[7;1m [0m| || 8
[32;1m[Board] [0m  -------------------
[32;1m[Board] [0m7 ||[30;1mp[0m|[7;1m [0m|[30;1mp[0m|[30;1mK[0m| |[7;1m [0m|[0;1mQ[0m|[7;1m [0m|| 7
[32;1m[Board] [0m  -------------------
[32;1m[Board] [0m6 ||[7;1m [0m| |[30;1mp[0m| |[7;1m [0m| |[7;1m [0m| || 6
[32;1m[Board] [0m  -------------------
[32;1m[Board] [0m5 || |[7;1m [0m| |[30;1mp[0m|[30;1mp[0m|[7;1m [0m| |[30;1mp[0m|| 5
[32;1m[Board] [0m  -------------------
[32;1m[Board] [0m4 ||[7;1m [0m| |[7;1m [0m| |[7;1m [0m| |[7;1m [0m| || 4
[32;1m[Board] [0m  -------------------
[32;1m[Board] [0m3 || |[7;1m [0m| |[7;1m [0m| |[7;1m [0m| |[7;1m [0m|| 3
[32;1m[Board] [0m  -------------------
[32;1m[Board] [0m2 ||[0;1mp[0m|[0;1mp[0m|[0;1mp[0m|[0;1mk[0m|[7;1m [0m|[0;1mp[0m|[0;1mp[0m|[0;1mp[0m|| 2
[32;1m[Board] [0m  -------------------
[32;1m[Board] [0m1 ||[0;1mr[0m|[7;1m [0m|[0;1mb[0m|[7;1m [0m|[0;1mK[0m|[7;1m [0m|[0;1mk[0m|[0;1mr[0m|| 1
[32;1m[Board] [0m  -------------------
[32;1m[Board] [0m    a b c d e f g h
[32;1m[Board] [0m
[32;1m[Referee] [0mThis is the turn of the Black player...
[32;1m[Board] [0m[33;1m[WARNING][0m [5;1mBlack King in check![0m
[32;1m[Board] [0m[33;1m[WARNING][0m    Threatened by White Queen (g7)

    a   b   c   d   e   f   g   h 
8 | r |   | b |   |   |   |   |    | 8
7 | p |   | p | k |   |   | Q |    | 7
6 |   |   | p |   |   |   |   |    | 6
5 |   |   |   | p | p |   |   | p  | 5
4 |   |   |   |   |   |   |   |    | 4
3 |   |   |   |   |   |   |   |    | 3
2 | P | P | P | N |   | P | P | P  | 2
1 | R |   | B |   | K |   | N | R  | 1
    a   b   c   d   e   f   g   h 

[32;1m[Game] [0mPlayer's error code: 0
[32;1m[Game] [0mChecking move validity...
[32;1m[Board] [0mInitializing board...
[32;1m[Board] [0mLoading history file `championship/lizzie-iii-git-gambit/history.csv`...
[32;1m[Board] [0mLoaded 25 move(s).
[32;1m[Board] [0mLoading move file `championship/lizzie-iii-git-gambit/move.csv`...
[32;1m[Board] [0mBlack player is playing d7 to e8.
[32;1m[Board] [0m
[32;1m[Board] [0m    a b c d e f g h 
[32;1m[Board] [0m  -------------------
[32;1m[Board] [0m8 ||[30;1mr[0m| |[30;1mb[0m| |[30;1mK[0m| |[7;1m [0m| || 8
[32;1m[Board] [0m  -------------------
[32;1m[Board] [0m7 ||[30;1mp[0m|[7;1m [0m|[30;1mp[0m|[7;1m [0m| |[7;1m [0m|[0;1mQ[0m|[7;1m [0m|| 7
[32;1m[Board] [0m  -------------------
[32;1m[Board] [0m6 ||[7;1m [0m| |[30;1mp[0m| |[7;1m [0m| |[7;1m [0m| || 6
[32;1m[Board] [0m  -------------------
[32;1m[Board] [0m5 || |[7;1m [0m| |[30;1mp[0m|[30;1mp[0m|[7;1m [0m| |[30;1mp[0m|| 5
[32;1m[Board] [0m  -------------------
[32;1m[Board] [0m4 ||[7;1m [0m| |[7;1m [0m| |[7;1m [0m| |[7;1m [0m| || 4
[32;1m[Board] [0m  -------------------
[32;1m[Board] [0m3 || |[7;1m [0m| |[7;1m [0m| |[7;1m [0m| |[7;1m [0m|| 3
[32;1m[Board] [0m  -------------------
[32;1m[Board] [0m2 ||[0;1mp[0m|[0;1mp[0m|[0;1mp[0m|[0;1mk[0m|[7;1m [0m|[0;1mp[0m|[0;1mp[0m|[0;1mp[0m|| 2
[32;1m[Board] [0m  -------------------
[32;1m[Board] [0m1 ||[0;1mr[0m|[7;1m [0m|[0;1mb[0m|[7;1m [0m|[0;1mK[0m|[7;1m [0m|[0;1mk[0m|[0;1mr[0m|| 1
[32;1m[Board] [0m  -------------------
[32;1m[Board] [0m    a b c d e f g h
[32;1m[Board] [0m
[32;1m[Referee] [0mThis is the turn of the White player...
Input file: championship/lizzie-iii-git-gambit/history.csv
Output file: championship/lizzie-iii-git-gambit/move.csv
We are playing as White
8 | [1;31mR[0m [1;30m_[0m [1;31mB[0m [1;30m_[0m [1;31mK[0m [1;30m_[0m [1;30m_[0m [1;30m_[0m 
7 | [1;31mP[0m [1;30m_[0m [1;31mP[0m [1;30m_[0m [1;30m_[0m [1;30m_[0m [1;32mQ[0m [1;30m_[0m 
6 | [1;30m_[0m [1;30m_[0m [1;31mP[0m [1;30m_[0m [1;30m_[0m [1;30m_[0m [1;30m_[0m [1;30m_[0m 
5 | [1;30m_[0m [1;30m_[0m [1;30m_[0m [1;31mP[0m [1;31mP[0m [1;30m_[0m [1;30m_[0m [1;31mP[0m 
4 | [1;30m_[0m [1;30m_[0m [1;30m_[0m [1;30m_[0m [1;30m_[0m [1;30m_[0m [1;30m_[0m [1;30m_[0m 
3 | [1;30m_[0m [1;30m_[0m [1;30m_[0m [1;30m_[0m [1;30m_[0m [1;30m_[0m [1;30m_[0m [1;30m_[0m 
2 | [1;32mP[0m [1;32mP[0m [1;32mP[0m [1;32mN[0m [1;30m_[0m [1;32mP[0m [1;32mP[0m [1;32mP[0m 
1 | [1;32mR[0m [1;30m_[0m [1;32mB[0m [1;30m_[0m [1;32mK[0m [1;30m_[0m [1;32mN[0m [1;32mR[0m 
-------------------
  | A B C D E F G H 

It is white's turn to play.
Best move: g7h8
Evaluation: 2355
Node count: 44579

Total time: 732.934 ms
[32;1m[Game] [0mPlayer's error code: 0
[32;1m[Game] [0mChecking move validity...
[32;1m[Board] [0mInitializing board...
[32;1m[Board] [0mLoading history file `championship/lizzie-iii-git-gambit/history.csv`...
[32;1m[Board] [0mLoaded 26 move(s).
[32;1m[Board] [0mLoading move file `championship/lizzie-iii-git-gambit/move.csv`...
[32;1m[Board] [0mWhite player is playing g7 to h8.
[32;1m[Board] [0m
[32;1m[Board] [0m    a b c d e f g h 
[32;1m[Board] [0m  -------------------
[32;1m[Board] [0m8 ||[30;1mr[0m| |[30;1mb[0m| |[30;1mK[0m| |[7;1m [0m|[0;1mQ[0m|| 8
[32;1m[Board] [0m  -------------------
[32;1m[Board] [0m7 ||[30;1mp[0m|[7;1m [0m|[30;1mp[0m|[7;1m [0m| |[7;1m [0m| |[7;1m [0m|| 7
[32;1m[Board] [0m  -------------------
[32;1m[Board] [0m6 ||[7;1m [0m| |[30;1mp[0m| |[7;1m [0m| |[7;1m [0m| || 6
[32;1m[Board] [0m  -------------------
[32;1m[Board] [0m5 || |[7;1m [0m| |[30;1mp[0m|[30;1mp[0m|[7;1m [0m| |[30;1mp[0m|| 5
[32;1m[Board] [0m  -------------------
[32;1m[Board] [0m4 ||[7;1m [0m| |[7;1m [0m| |[7;1m [0m| |[7;1m [0m| || 4
[32;1m[Board] [0m  -------------------
[32;1m[Board] [0m3 || |[7;1m [0m| |[7;1m [0m| |[7;1m [0m| |[7;1m [0m|| 3
[32;1m[Board] [0m  -------------------
[32;1m[Board] [0m2 ||[0;1mp[0m|[0;1mp[0m|[0;1mp[0m|[0;1mk[0m|[7;1m [0m|[0;1mp[0m|[0;1mp[0m|[0;1mp[0m|| 2
[32;1m[Board] [0m  -------------------
[32;1m[Board] [0m1 ||[0;1mr[0m|[7;1m [0m|[0;1mb[0m|[7;1m [0m|[0;1mK[0m|[7;1m [0m|[0;1mk[0m|[0;1mr[0m|| 1
[32;1m[Board] [0m  -------------------
[32;1m[Board] [0m    a b c d e f g h
[32;1m[Board] [0m
[32;1m[Referee] [0mThis is the turn of the Black player...
[32;1m[Board] [0m[33;1m[WARNING][0m [5;1mBlack King in check![0m
[32;1m[Board] [0m[33;1m[WARNING][0m    Threatened by White Queen (h8)

    a   b   c   d   e   f   g   h 
8 | r |   | b |   | k |   |   | Q  | 8
7 | p |   | p |   |   |   |   |    | 7
6 |   |   | p |   |   |   |   |    | 6
5 |   |   |   | p | p |   |   | p  | 5
4 |   |   |   |   |   |   |   |    | 4
3 |   |   |   |   |   |   |   |    | 3
2 | P | P | P | N |   | P | P | P  | 2
1 | R |   | B |   | K |   | N | R  | 1
    a   b   c   d   e   f   g   h 

[32;1m[Game] [0mPlayer's error code: 0
[32;1m[Game] [0mChecking move validity...
[32;1m[Board] [0mInitializing board...
[32;1m[Board] [0mLoading history file `championship/lizzie-iii-git-gambit/history.csv`...
[32;1m[Board] [0mLoaded 27 move(s).
[32;1m[Board] [0mLoading move file `championship/lizzie-iii-git-gambit/move.csv`...
[32;1m[Board] [0mBlack player is playing e8 to d7.
[32;1m[Board] [0m
[32;1m[Board] [0m    a b c d e f g h 
[32;1m[Board] [0m  -------------------
[32;1m[Board] [0m8 ||[30;1mr[0m| |[30;1mb[0m| |[7;1m [0m| |[7;1m [0m|[0;1mQ[0m|| 8
[32;1m[Board] [0m  -------------------
[32;1m[Board] [0m7 ||[30;1mp[0m|[7;1m [0m|[30;1mp[0m|[30;1mK[0m| |[7;1m [0m| |[7;1m [0m|| 7
[32;1m[Board] [0m  -------------------
[32;1m[Board] [0m6 ||[7;1m [0m| |[30;1mp[0m| |[7;1m [0m| |[7;1m [0m| || 6
[32;1m[Board] [0m  -------------------
[32;1m[Board] [0m5 || |[7;1m [0m| |[30;1mp[0m|[30;1mp[0m|[7;1m [0m| |[30;1mp[0m|| 5
[32;1m[Board] [0m  -------------------
[32;1m[Board] [0m4 ||[7;1m [0m| |[7;1m [0m| |[7;1m [0m| |[7;1m [0m| || 4
[32;1m[Board] [0m  -------------------
[32;1m[Board] [0m3 || |[7;1m [0m| |[7;1m [0m| |[7;1m [0m| |[7;1m [0m|| 3
[32;1m[Board] [0m  -------------------
[32;1m[Board] [0m2 ||[0;1mp[0m|[0;1mp[0m|[0;1mp[0m|[0;1mk[0m|[7;1m [0m|[0;1mp[0m|[0;1mp[0m|[0;1mp[0m|| 2
[32;1m[Board] [0m  -------------------
[32;1m[Board] [0m1 ||[0;1mr[0m|[7;1m [0m|[0;1mb[0m|[7;1m [0m|[0;1mK[0m|[7;1m [0m|[0;1mk[0m|[0;1mr[0m|| 1
[32;1m[Board] [0m  -------------------
[32;1m[Board] [0m    a b c d e f g h
[32;1m[Board] [0m
[32;1m[Referee] [0mThis is the turn of the White player...
[32;1m[Board] [0m[33;1m[WARNING][0m Current board equals previous board (move #24)
Input file: championship/lizzie-iii-git-gambit/history.csv
Output file: championship/lizzie-iii-git-gambit/move.csv
We are playing as White
8 | [1;31mR[0m [1;30m_[0m [1;31mB[0m [1;30m_[0m [1;30m_[0m [1;30m_[0m [1;30m_[0m [1;32mQ[0m 
7 | [1;31mP[0m [1;30m_[0m [1;31mP[0m [1;31mK[0m [1;30m_[0m [1;30m_[0m [1;30m_[0m [1;30m_[0m 
6 | [1;30m_[0m [1;30m_[0m [1;31mP[0m [1;30m_[0m [1;30m_[0m [1;30m_[0m [1;30m_[0m [1;30m_[0m 
5 | [1;30m_[0m [1;30m_[0m [1;30m_[0m [1;31mP[0m [1;31mP[0m [1;30m_[0m [1;30m_[0m [1;31mP[0m 
4 | [1;30m_[0m [1;30m_[0m [1;30m_[0m [1;30m_[0m [1;30m_[0m [1;30m_[0m [1;30m_[0m [1;30m_[0m 
3 | [1;30m_[0m [1;30m_[0m [1;30m_[0m [1;30m_[0m [1;30m_[0m [1;30m_[0m [1;30m_[0m [1;30m_[0m 
2 | [1;32mP[0m [1;32mP[0m [1;32mP[0m [1;32mN[0m [1;30m_[0m [1;32mP[0m [1;32mP[0m [1;32mP[0m 
1 | [1;32mR[0m [1;30m_[0m [1;32mB[0m [1;30m_[0m [1;32mK[0m [1;30m_[0m [1;32mN[0m [1;32mR[0m 
-------------------
  | A B C D E F G H 

It is white's turn to play.
Best move: d2f3
Evaluation: 2330
Node count: 54617

Total time: 942.169 ms
[32;1m[Game] [0mPlayer's error code: 0
[32;1m[Game] [0mChecking move validity...
[32;1m[Board] [0mInitializing board...
[32;1m[Board] [0mLoading history file `championship/lizzie-iii-git-gambit/history.csv`...
[32;1m[Board] [0mLoaded 28 move(s).
[32;1m[Board] [0mLoading move file `championship/lizzie-iii-git-gambit/move.csv`...
[32;1m[Board] [0mWhite player is playing d2 to f3.
[32;1m[Board] [0m
[32;1m[Board] [0m    a b c d e f g h 
[32;1m[Board] [0m  -------------------
[32;1m[Board] [0m8 ||[30;1mr[0m| |[30;1mb[0m| |[7;1m [0m| |[7;1m [0m|[0;1mQ[0m|| 8
[32;1m[Board] [0m  -------------------
[32;1m[Board] [0m7 ||[30;1mp[0m|[7;1m [0m|[30;1mp[0m|[30;1mK[0m| |[7;1m [0m| |[7;1m [0m|| 7
[32;1m[Board] [0m  -------------------
[32;1m[Board] [0m6 ||[7;1m [0m| |[30;1mp[0m| |[7;1m [0m| |[7;1m [0m| || 6
[32;1m[Board] [0m  -------------------
[32;1m[Board] [0m5 || |[7;1m [0m| |[30;1mp[0m|[30;1mp[0m|[7;1m [0m| |[30;1mp[0m|| 5
[32;1m[Board] [0m  -------------------
[32;1m[Board] [0m4 ||[7;1m [0m| |[7;1m [0m| |[7;1m [0m| |[7;1m [0m| || 4
[32;1m[Board] [0m  -------------------
[32;1m[Board] [0m3 || |[7;1m [0m| |[7;1m [0m| |[0;1mk[0m| |[7;1m [0m|| 3
[32;1m[Board] [0m  -------------------
[32;1m[Board] [0m2 ||[0;1mp[0m|[0;1mp[0m|[0;1mp[0m| |[7;1m [0m|[0;1mp[0m|[0;1mp[0m|[0;1mp[0m|| 2
[32;1m[Board] [0m  -------------------
[32;1m[Board] [0m1 ||[0;1mr[0m|[7;1m [0m|[0;1mb[0m|[7;1m [0m|[0;1mK[0m|[7;1m [0m|[0;1mk[0m|[0;1mr[0m|| 1
[32;1m[Board] [0m  -------------------
[32;1m[Board] [0m    a b c d e f g h
[32;1m[Board] [0m
[32;1m[Referee] [0mThis is the turn of the Black player...

    a   b   c   d   e   f   g   h 
8 | r |   | b |   |   |   |   | Q  | 8
7 | p |   | p | k |   |   |   |    | 7
6 |   |   | p |   |   |   |   |    | 6
5 |   |   |   | p | p |   |   | p  | 5
4 |   |   |   |   |   |   |   |    | 4
3 |   |   |   |   |   | N |   |    | 3
2 | P | P | P |   |   | P | P | P  | 2
1 | R |   | B |   | K |   | N | R  | 1
    a   b   c   d   e   f   g   h 

[32;1m[Game] [0mPlayer's error code: 0
[32;1m[Game] [0mChecking move validity...
[32;1m[Board] [0mInitializing board...
[32;1m[Board] [0mLoading history file `championship/lizzie-iii-git-gambit/history.csv`...
[32;1m[Board] [0mLoaded 29 move(s).
[32;1m[Board] [0mLoading move file `championship/lizzie-iii-git-gambit/move.csv`...
[32;1m[Board] [0mBlack player is playing e5 to e4.
[32;1m[Board] [0m
[32;1m[Board] [0m    a b c d e f g h 
[32;1m[Board] [0m  -------------------
[32;1m[Board] [0m8 ||[30;1mr[0m| |[30;1mb[0m| |[7;1m [0m| |[7;1m [0m|[0;1mQ[0m|| 8
[32;1m[Board] [0m  -------------------
[32;1m[Board] [0m7 ||[30;1mp[0m|[7;1m [0m|[30;1mp[0m|[30;1mK[0m| |[7;1m [0m| |[7;1m [0m|| 7
[32;1m[Board] [0m  -------------------
[32;1m[Board] [0m6 ||[7;1m [0m| |[30;1mp[0m| |[7;1m [0m| |[7;1m [0m| || 6
[32;1m[Board] [0m  -------------------
[32;1m[Board] [0m5 || |[7;1m [0m| |[30;1mp[0m| |[7;1m [0m| |[30;1mp[0m|| 5
[32;1m[Board] [0m  -------------------
[32;1m[Board] [0m4 ||[7;1m [0m| |[7;1m [0m| |[30;1mp[0m| |[7;1m [0m| || 4
[32;1m[Board] [0m  -------------------
[32;1m[Board] [0m3 || |[7;1m [0m| |[7;1m [0m| |[0;1mk[0m| |[7;1m [0m|| 3
[32;1m[Board] [0m  -------------------
[32;1m[Board] [0m2 ||[0;1mp[0m|[0;1mp[0m|[0;1mp[0m| |[7;1m [0m|[0;1mp[0m|[0;1mp[0m|[0;1mp[0m|| 2
[32;1m[Board] [0m  -------------------
[32;1m[Board] [0m1 ||[0;1mr[0m|[7;1m [0m|[0;1mb[0m|[7;1m [0m|[0;1mK[0m|[7;1m [0m|[0;1mk[0m|[0;1mr[0m|| 1
[32;1m[Board] [0m  -------------------
[32;1m[Board] [0m    a b c d e f g h
[32;1m[Board] [0m
[32;1m[Referee] [0mThis is the turn of the White player...
Input file: championship/lizzie-iii-git-gambit/history.csv
Output file: championship/lizzie-iii-git-gambit/move.csv
We are playing as White
8 | [1;31mR[0m [1;30m_[0m [1;31mB[0m [1;30m_[0m [1;30m_[0m [1;30m_[0m [1;30m_[0m [1;32mQ[0m 
7 | [1;31mP[0m [1;30m_[0m [1;31mP[0m [1;31mK[0m [1;30m_[0m [1;30m_[0m [1;30m_[0m [1;30m_[0m 
6 | [1;30m_[0m [1;30m_[0m [1;31mP[0m [1;30m_[0m [1;30m_[0m [1;30m_[0m [1;30m_[0m [1;30m_[0m 
5 | [1;30m_[0m [1;30m_[0m [1;30m_[0m [1;31mP[0m [1;30m_[0m [1;30m_[0m [1;30m_[0m [1;31mP[0m 
4 | [1;30m_[0m [1;30m_[0m [1;30m_[0m [1;30m_[0m [1;31mP[0m [1;30m_[0m [1;30m_[0m [1;30m_[0m 
3 | [1;30m_[0m [1;30m_[0m [1;30m_[0m [1;30m_[0m [1;30m_[0m [1;32mN[0m [1;30m_[0m [1;30m_[0m 
2 | [1;32mP[0m [1;32mP[0m [1;32mP[0m [1;30m_[0m [1;30m_[0m [1;32mP[0m [1;32mP[0m [1;32mP[0m 
1 | [1;32mR[0m [1;30m_[0m [1;32mB[0m [1;30m_[0m [1;32mK[0m [1;30m_[0m [1;32mN[0m [1;32mR[0m 
-------------------
  | A B C D E F G H 

It is white's turn to play.
Best move: f3d4
Evaluation: 2225
Node count: 49850

Total time: 875.386 ms
[32;1m[Game] [0mPlayer's error code: 0
[32;1m[Game] [0mChecking move validity...
[32;1m[Board] [0mInitializing board...
[32;1m[Board] [0mLoading history file `championship/lizzie-iii-git-gambit/history.csv`...
[32;1m[Board] [0mLoaded 30 move(s).
[32;1m[Board] [0mLoading move file `championship/lizzie-iii-git-gambit/move.csv`...
[32;1m[Board] [0mWhite player is playing f3 to d4.
[32;1m[Board] [0m
[32;1m[Board] [0m    a b c d e f g h 
[32;1m[Board] [0m  -------------------
[32;1m[Board] [0m8 ||[30;1mr[0m| |[30;1mb[0m| |[7;1m [0m| |[7;1m [0m|[0;1mQ[0m|| 8
[32;1m[Board] [0m  -------------------
[32;1m[Board] [0m7 ||[30;1mp[0m|[7;1m [0m|[30;1mp[0m|[30;1mK[0m| |[7;1m [0m| |[7;1m [0m|| 7
[32;1m[Board] [0m  -------------------
[32;1m[Board] [0m6 ||[7;1m [0m| |[30;1mp[0m| |[7;1m [0m| |[7;1m [0m| || 6
[32;1m[Board] [0m  -------------------
[32;1m[Board] [0m5 || |[7;1m [0m| |[30;1mp[0m| |[7;1m [0m| |[30;1mp[0m|| 5
[32;1m[Board] [0m  -------------------
[32;1m[Board] [0m4 ||[7;1m [0m| |[7;1m [0m|[0;1mk[0m|[30;1mp[0m| |[7;1m [0m| || 4
[32;1m[Board] [0m  -------------------
[32;1m[Board] [0m3 || |[7;1m [0m| |[7;1m [0m| |[7;1m [0m| |[7;1m [0m|| 3
[32;1m[Board] [0m  -------------------
[32;1m[Board] [0m2 ||[0;1mp[0m|[0;1mp[0m|[0;1mp[0m| |[7;1m [0m|[0;1mp[0m|[0;1mp[0m|[0;1mp[0m|| 2
[32;1m[Board] [0m  -------------------
[32;1m[Board] [0m1 ||[0;1mr[0m|[7;1m [0m|[0;1mb[0m|[7;1m [0m|[0;1mK[0m|[7;1m [0m|[0;1mk[0m|[0;1mr[0m|| 1
[32;1m[Board] [0m  -------------------
[32;1m[Board] [0m    a b c d e f g h
[32;1m[Board] [0m
[32;1m[Referee] [0mThis is the turn of the Black player...

    a   b   c   d   e   f   g   h 
8 | r |   | b |   |   |   |   | Q  | 8
7 | p |   | p | k |   |   |   |    | 7
6 |   |   | p |   |   |   |   |    | 6
5 |   |   |   | p |   |   |   | p  | 5
4 |   |   |   | N | p |   |   |    | 4
3 |   |   |   |   |   |   |   |    | 3
2 | P | P | P |   |   | P | P | P  | 2
1 | R |   | B |   | K |   | N | R  | 1
    a   b   c   d   e   f   g   h 

[32;1m[Game] [0mPlayer's error code: 0
[32;1m[Game] [0mChecking move validity...
[32;1m[Board] [0mInitializing board...
[32;1m[Board] [0mLoading history file `championship/lizzie-iii-git-gambit/history.csv`...
[32;1m[Board] [0mLoaded 31 move(s).
[32;1m[Board] [0mLoading move file `championship/lizzie-iii-git-gambit/move.csv`...
[32;1m[Board] [0mBlack player is playing h5 to h4.
[32;1m[Board] [0m
[32;1m[Board] [0m    a b c d e f g h 
[32;1m[Board] [0m  -------------------
[32;1m[Board] [0m8 ||[30;1mr[0m| |[30;1mb[0m| |[7;1m [0m| |[7;1m [0m|[0;1mQ[0m|| 8
[32;1m[Board] [0m  -------------------
[32;1m[Board] [0m7 ||[30;1mp[0m|[7;1m [0m|[30;1mp[0m|[30;1mK[0m| |[7;1m [0m| |[7;1m [0m|| 7
[32;1m[Board] [0m  -------------------
[32;1m[Board] [0m6 ||[7;1m [0m| |[30;1mp[0m| |[7;1m [0m| |[7;1m [0m| || 6
[32;1m[Board] [0m  -------------------
[32;1m[Board] [0m5 || |[7;1m [0m| |[30;1mp[0m| |[7;1m [0m| |[7;1m [0m|| 5
[32;1m[Board] [0m  -------------------
[32;1m[Board] [0m4 ||[7;1m [0m| |[7;1m [0m|[0;1mk[0m|[30;1mp[0m| |[7;1m [0m|[30;1mp[0m|| 4
[32;1m[Board] [0m  -------------------
[32;1m[Board] [0m3 || |[7;1m [0m| |[7;1m [0m| |[7;1m [0m| |[7;1m [0m|| 3
[32;1m[Board] [0m  -------------------
[32;1m[Board] [0m2 ||[0;1mp[0m|[0;1mp[0m|[0;1mp[0m| |[7;1m [0m|[0;1mp[0m|[0;1mp[0m|[0;1mp[0m|| 2
[32;1m[Board] [0m  -------------------
[32;1m[Board] [0m1 ||[0;1mr[0m|[7;1m [0m|[0;1mb[0m|[7;1m [0m|[0;1mK[0m|[7;1m [0m|[0;1mk[0m|[0;1mr[0m|| 1
[32;1m[Board] [0m  -------------------
[32;1m[Board] [0m    a b c d e f g h
[32;1m[Board] [0m
[32;1m[Referee] [0mThis is the turn of the White player...
Input file: championship/lizzie-iii-git-gambit/history.csv
Output file: championship/lizzie-iii-git-gambit/move.csv
We are playing as White
8 | [1;31mR[0m [1;30m_[0m [1;31mB[0m [1;30m_[0m [1;30m_[0m [1;30m_[0m [1;30m_[0m [1;32mQ[0m 
7 | [1;31mP[0m [1;30m_[0m [1;31mP[0m [1;31mK[0m [1;30m_[0m [1;30m_[0m [1;30m_[0m [1;30m_[0m 
6 | [1;30m_[0m [1;30m_[0m [1;31mP[0m [1;30m_[0m [1;30m_[0m [1;30m_[0m [1;30m_[0m [1;30m_[0m 
5 | [1;30m_[0m [1;30m_[0m [1;30m_[0m [1;31mP[0m [1;30m_[0m [1;30m_[0m [1;30m_[0m [1;30m_[0m 
4 | [1;30m_[0m [1;30m_[0m [1;30m_[0m [1;32mN[0m [1;31mP[0m [1;30m_[0m [1;30m_[0m [1;31mP[0m 
3 | [1;30m_[0m [1;30m_[0m [1;30m_[0m [1;30m_[0m [1;30m_[0m [1;30m_[0m [1;30m_[0m [1;30m_[0m 
2 | [1;32mP[0m [1;32mP[0m [1;32mP[0m [1;30m_[0m [1;30m_[0m [1;32mP[0m [1;32mP[0m [1;32mP[0m 
1 | [1;32mR[0m [1;30m_[0m [1;32mB[0m [1;30m_[0m [1;32mK[0m [1;30m_[0m [1;32mN[0m [1;32mR[0m 
-------------------
  | A B C D E F G H 

It is white's turn to play.
Best move: h8f8
Evaluation: 2135
Node count: 9332

Total time: 161.048 ms
[32;1m[Game] [0mPlayer's error code: 0
[32;1m[Game] [0mChecking move validity...
[32;1m[Board] [0mInitializing board...
[32;1m[Board] [0mLoading history file `championship/lizzie-iii-git-gambit/history.csv`...
[32;1m[Board] [0mLoaded 32 move(s).
[32;1m[Board] [0mLoading move file `championship/lizzie-iii-git-gambit/move.csv`...
[32;1m[Board] [0mWhite player is playing h8 to f8.
[32;1m[Board] [0m
[32;1m[Board] [0m    a b c d e f g h 
[32;1m[Board] [0m  -------------------
[32;1m[Board] [0m8 ||[30;1mr[0m| |[30;1mb[0m| |[7;1m [0m|[0;1mQ[0m|[7;1m [0m| || 8
[32;1m[Board] [0m  -------------------
[32;1m[Board] [0m7 ||[30;1mp[0m|[7;1m [0m|[30;1mp[0m|[30;1mK[0m| |[7;1m [0m| |[7;1m [0m|| 7
[32;1m[Board] [0m  -------------------
[32;1m[Board] [0m6 ||[7;1m [0m| |[30;1mp[0m| |[7;1m [0m| |[7;1m [0m| || 6
[32;1m[Board] [0m  -------------------
[32;1m[Board] [0m5 || |[7;1m [0m| |[30;1mp[0m| |[7;1m [0m| |[7;1m [0m|| 5
[32;1m[Board] [0m  -------------------
[32;1m[Board] [0m4 ||[7;1m [0m| |[7;1m [0m|[0;1mk[0m|[30;1mp[0m| |[7;1m [0m|[30;1mp[0m|| 4
[32;1m[Board] [0m  -------------------
[32;1m[Board] [0m3 || |[7;1m [0m| |[7;1m [0m| |[7;1m [0m| |[7;1m [0m|| 3
[32;1m[Board] [0m  -------------------
[32;1m[Board] [0m2 ||[0;1mp[0m|[0;1mp[0m|[0;1mp[0m| |[7;1m [0m|[0;1mp[0m|[0;1mp[0m|[0;1mp[0m|| 2
[32;1m[Board] [0m  -------------------
[32;1m[Board] [0m1 ||[0;1mr[0m|[7;1m [0m|[0;1mb[0m|[7;1m [0m|[0;1mK[0m|[7;1m [0m|[0;1mk[0m|[0;1mr[0m|| 1
[32;1m[Board] [0m  -------------------
[32;1m[Board] [0m    a b c d e f g h
[32;1m[Board] [0m
[32;1m[Referee] [0mThis is the turn of the Black player...

    a   b   c   d   e   f   g   h 
8 | r |   | b |   |   | Q |   |    | 8
7 | p |   | p | k |   |   |   |    | 7
6 |   |   | p |   |   |   |   |    | 6
5 |   |   |   | p |   |   |   |    | 5
4 |   |   |   | N | p |   |   | p  | 4
3 |   |   |   |   |   |   |   |    | 3
2 | P | P | P |   |   | P | P | P  | 2
1 | R |   | B |   | K |   | N | R  | 1
    a   b   c   d   e   f   g   h 

[32;1m[Game] [0mPlayer's error code: 0
[32;1m[Game] [0mChecking move validity...
[32;1m[Board] [0mInitializing board...
[32;1m[Board] [0mLoading history file `championship/lizzie-iii-git-gambit/history.csv`...
[32;1m[Board] [0mLoaded 33 move(s).
[32;1m[Board] [0mLoading move file `championship/lizzie-iii-git-gambit/move.csv`...
[32;1m[Board] [0mBlack player is playing a8 to b8.
[32;1m[Board] [0m
[32;1m[Board] [0m    a b c d e f g h 
[32;1m[Board] [0m  -------------------
[32;1m[Board] [0m8 ||[7;1m [0m|[30;1mr[0m|[30;1mb[0m| |[7;1m [0m|[0;1mQ[0m|[7;1m [0m| || 8
[32;1m[Board] [0m  -------------------
[32;1m[Board] [0m7 ||[30;1mp[0m|[7;1m [0m|[30;1mp[0m|[30;1mK[0m| |[7;1m [0m| |[7;1m [0m|| 7
[32;1m[Board] [0m  -------------------
[32;1m[Board] [0m6 ||[7;1m [0m| |[30;1mp[0m| |[7;1m [0m| |[7;1m [0m| || 6
[32;1m[Board] [0m  -------------------
[32;1m[Board] [0m5 || |[7;1m [0m| |[30;1mp[0m| |[7;1m [0m| |[7;1m [0m|| 5
[32;1m[Board] [0m  -------------------
[32;1m[Board] [0m4 ||[7;1m [0m| |[7;1m [0m|[0;1mk[0m|[30;1mp[0m| |[7;1m [0m|[30;1mp[0m|| 4
[32;1m[Board] [0m  -------------------
[32;1m[Board] [0m3 || |[7;1m [0m| |[7;1m [0m| |[7;1m [0m| |[7;1m [0m|| 3
[32;1m[Board] [0m  -------------------
[32;1m[Board] [0m2 ||[0;1mp[0m|[0;1mp[0m|[0;1mp[0m| |[7;1m [0m|[0;1mp[0m|[0;1mp[0m|[0;1mp[0m|| 2
[32;1m[Board] [0m  -------------------
[32;1m[Board] [0m1 ||[0;1mr[0m|[7;1m [0m|[0;1mb[0m|[7;1m [0m|[0;1mK[0m|[7;1m [0m|[0;1mk[0m|[0;1mr[0m|| 1
[32;1m[Board] [0m  -------------------
[32;1m[Board] [0m    a b c d e f g h
[32;1m[Board] [0m
[32;1m[Referee] [0mThis is the turn of the White player...
Input file: championship/lizzie-iii-git-gambit/history.csv
Output file: championship/lizzie-iii-git-gambit/move.csv
We are playing as White
8 | [1;30m_[0m [1;31mR[0m [1;31mB[0m [1;30m_[0m [1;30m_[0m [1;32mQ[0m [1;30m_[0m [1;30m_[0m 
7 | [1;31mP[0m [1;30m_[0m [1;31mP[0m [1;31mK[0m [1;30m_[0m [1;30m_[0m [1;30m_[0m [1;30m_[0m 
6 | [1;30m_[0m [1;30m_[0m [1;31mP[0m [1;30m_[0m [1;30m_[0m [1;30m_[0m [1;30m_[0m [1;30m_[0m 
5 | [1;30m_[0m [1;30m_[0m [1;30m_[0m [1;31mP[0m [1;30m_[0m [1;30m_[0m [1;30m_[0m [1;30m_[0m 
4 | [1;30m_[0m [1;30m_[0m [1;30m_[0m [1;32mN[0m [1;31mP[0m [1;30m_[0m [1;30m_[0m [1;31mP[0m 
3 | [1;30m_[0m [1;30m_[0m [1;30m_[0m [1;30m_[0m [1;30m_[0m [1;30m_[0m [1;30m_[0m [1;30m_[0m 
2 | [1;32mP[0m [1;32mP[0m [1;32mP[0m [1;30m_[0m [1;30m_[0m [1;32mP[0m [1;32mP[0m [1;32mP[0m 
1 | [1;32mR[0m [1;30m_[0m [1;32mB[0m [1;30m_[0m [1;32mK[0m [1;30m_[0m [1;32mN[0m [1;32mR[0m 
-------------------
  | A B C D E F G H 

It is white's turn to play.
Best move: d4f5
Evaluation: 2360
Node count: 93357

Total time: 1613.17 ms
[32;1m[Game] [0mPlayer's error code: 0
[32;1m[Game] [0mChecking move validity...
[32;1m[Board] [0mInitializing board...
[32;1m[Board] [0mLoading history file `championship/lizzie-iii-git-gambit/history.csv`...
[32;1m[Board] [0mLoaded 34 move(s).
[32;1m[Board] [0mLoading move file `championship/lizzie-iii-git-gambit/move.csv`...
[32;1m[Board] [0mWhite player is playing d4 to f5.
[32;1m[Board] [0m
[32;1m[Board] [0m    a b c d e f g h 
[32;1m[Board] [0m  -------------------
[32;1m[Board] [0m8 ||[7;1m [0m|[30;1mr[0m|[30;1mb[0m| |[7;1m [0m|[0;1mQ[0m|[7;1m [0m| || 8
[32;1m[Board] [0m  -------------------
[32;1m[Board] [0m7 ||[30;1mp[0m|[7;1m [0m|[30;1mp[0m|[30;1mK[0m| |[7;1m [0m| |[7;1m [0m|| 7
[32;1m[Board] [0m  -------------------
[32;1m[Board] [0m6 ||[7;1m [0m| |[30;1mp[0m| |[7;1m [0m| |[7;1m [0m| || 6
[32;1m[Board] [0m  -------------------
[32;1m[Board] [0m5 || |[7;1m [0m| |[30;1mp[0m| |[0;1mk[0m| |[7;1m [0m|| 5
[32;1m[Board] [0m  -------------------
[32;1m[Board] [0m4 ||[7;1m [0m| |[7;1m [0m| |[30;1mp[0m| |[7;1m [0m|[30;1mp[0m|| 4
[32;1m[Board] [0m  -------------------
[32;1m[Board] [0m3 || |[7;1m [0m| |[7;1m [0m| |[7;1m [0m| |[7;1m [0m|| 3
[32;1m[Board] [0m  -------------------
[32;1m[Board] [0m2 ||[0;1mp[0m|[0;1mp[0m|[0;1mp[0m| |[7;1m [0m|[0;1mp[0m|[0;1mp[0m|[0;1mp[0m|| 2
[32;1m[Board] [0m  -------------------
[32;1m[Board] [0m1 ||[0;1mr[0m|[7;1m [0m|[0;1mb[0m|[7;1m [0m|[0;1mK[0m|[7;1m [0m|[0;1mk[0m|[0;1mr[0m|| 1
[32;1m[Board] [0m  -------------------
[32;1m[Board] [0m    a b c d e f g h
[32;1m[Board] [0m
[32;1m[Referee] [0mThis is the turn of the Black player...

    a   b   c   d   e   f   g   h 
8 |   | r | b |   |   | Q |   |    | 8
7 | p |   | p | k |   |   |   |    | 7
6 |   |   | p |   |   |   |   |    | 6
5 |   |   |   | p |   | N |   |    | 5
4 |   |   |   |   | p |   |   | p  | 4
3 |   |   |   |   |   |   |   |    | 3
2 | P | P | P |   |   | P | P | P  | 2
1 | R |   | B |   | K |   | N | R  | 1
    a   b   c   d   e   f   g   h 

[32;1m[Game] [0mPlayer's error code: 0
[32;1m[Game] [0mChecking move validity...
[32;1m[Board] [0mInitializing board...
[32;1m[Board] [0mLoading history file `championship/lizzie-iii-git-gambit/history.csv`...
[32;1m[Board] [0mLoaded 35 move(s).
[32;1m[Board] [0mLoading move file `championship/lizzie-iii-git-gambit/move.csv`...
[32;1m[Board] [0mBlack player is playing b8 to b2.
[32;1m[Board] [0m[5;1mBlack Rook is taking White Pawn.[0m
[32;1m[Board] [0m
[32;1m[Board] [0m    a b c d e f g h 
[32;1m[Board] [0m  -------------------
[32;1m[Board] [0m8 ||[7;1m [0m| |[30;1mb[0m| |[7;1m [0m|[0;1mQ[0m|[7;1m [0m| || 8
[32;1m[Board] [0m  -------------------
[32;1m[Board] [0m7 ||[30;1mp[0m|[7;1m [0m|[30;1mp[0m|[30;1mK[0m| |[7;1m [0m| |[7;1m [0m|| 7
[32;1m[Board] [0m  -------------------
[32;1m[Board] [0m6 ||[7;1m [0m| |[30;1mp[0m| |[7;1m [0m| |[7;1m [0m| || 6
[32;1m[Board] [0m  -------------------
[32;1m[Board] [0m5 || |[7;1m [0m| |[30;1mp[0m| |[0;1mk[0m| |[7;1m [0m|| 5
[32;1m[Board] [0m  -------------------
[32;1m[Board] [0m4 ||[7;1m [0m| |[7;1m [0m| |[30;1mp[0m| |[7;1m [0m|[30;1mp[0m|| 4
[32;1m[Board] [0m  -------------------
[32;1m[Board] [0m3 || |[7;1m [0m| |[7;1m [0m| |[7;1m [0m| |[7;1m [0m|| 3
[32;1m[Board] [0m  -------------------
[32;1m[Board] [0m2 ||[0;1mp[0m|[30;1mr[0m|[0;1mp[0m| |[7;1m [0m|[0;1mp[0m|[0;1mp[0m|[0;1mp[0m|| 2
[32;1m[Board] [0m  -------------------
[32;1m[Board] [0m1 ||[0;1mr[0m|[7;1m [0m|[0;1mb[0m|[7;1m [0m|[0;1mK[0m|[7;1m [0m|[0;1mk[0m|[0;1mr[0m|| 1
[32;1m[Board] [0m  -------------------
[32;1m[Board] [0m    a b c d e f g h
[32;1m[Board] [0m
[32;1m[Referee] [0mThis is the turn of the White player...
Input file: championship/lizzie-iii-git-gambit/history.csv
Output file: championship/lizzie-iii-git-gambit/move.csv
We are playing as White
8 | [1;30m_[0m [1;30m_[0m [1;31mB[0m [1;30m_[0m [1;30m_[0m [1;32mQ[0m [1;30m_[0m [1;30m_[0m 
7 | [1;31mP[0m [1;30m_[0m [1;31mP[0m [1;31mK[0m [1;30m_[0m [1;30m_[0m [1;30m_[0m [1;30m_[0m 
6 | [1;30m_[0m [1;30m_[0m [1;31mP[0m [1;30m_[0m [1;30m_[0m [1;30m_[0m [1;30m_[0m [1;30m_[0m 
5 | [1;30m_[0m [1;30m_[0m [1;30m_[0m [1;31mP[0m [1;30m_[0m [1;32mN[0m [1;30m_[0m [1;30m_[0m 
4 | [1;30m_[0m [1;30m_[0m [1;30m_[0m [1;30m_[0m [1;31mP[0m [1;30m_[0m [1;30m_[0m [1;31mP[0m 
3 | [1;30m_[0m [1;30m_[0m [1;30m_[0m [1;30m_[0m [1;30m_[0m [1;30m_[0m [1;30m_[0m [1;30m_[0m 
2 | [1;32mP[0m [1;31mR[0m [1;32mP[0m [1;30m_[0m [1;30m_[0m [1;32mP[0m [1;32mP[0m [1;32mP[0m 
1 | [1;32mR[0m [1;30m_[0m [1;32mB[0m [1;30m_[0m [1;32mK[0m [1;30m_[0m [1;32mN[0m [1;32mR[0m 
-------------------
  | A B C D E F G H 

It is white's turn to play.
Best move: f8e7
Evaluation: 100004
Node count: 32117

Total time: 609.042 ms
[32;1m[Game] [0mPlayer's error code: 0
[32;1m[Game] [0mChecking move validity...
[32;1m[Board] [0mInitializing board...
[32;1m[Board] [0mLoading history file `championship/lizzie-iii-git-gambit/history.csv`...
[32;1m[Board] [0mLoaded 36 move(s).
[32;1m[Board] [0mLoading move file `championship/lizzie-iii-git-gambit/move.csv`...
[32;1m[Board] [0mWhite player is playing f8 to e7.
[32;1m[Board] [0m
[32;1m[Board] [0m    a b c d e f g h 
[32;1m[Board] [0m  -------------------
[32;1m[Board] [0m8 ||[7;1m [0m| |[30;1mb[0m| |[7;1m [0m| |[7;1m [0m| || 8
[32;1m[Board] [0m  -------------------
[32;1m[Board] [0m7 ||[30;1mp[0m|[7;1m [0m|[30;1mp[0m|[30;1mK[0m|[0;1mQ[0m|[7;1m [0m| |[7;1m [0m|| 7
[32;1m[Board] [0m  -------------------
[32;1m[Board] [0m6 ||[7;1m [0m| |[30;1mp[0m| |[7;1m [0m| |[7;1m [0m| || 6
[32;1m[Board] [0m  -------------------
[32;1m[Board] [0m5 || |[7;1m [0m| |[30;1mp[0m| |[0;1mk[0m| |[7;1m [0m|| 5
[32;1m[Board] [0m  -------------------
[32;1m[Board] [0m4 ||[7;1m [0m| |[7;1m [0m| |[30;1mp[0m| |[7;1m [0m|[30;1mp[0m|| 4
[32;1m[Board] [0m  -------------------
[32;1m[Board] [0m3 || |[7;1m [0m| |[7;1m [0m| |[7;1m [0m| |[7;1m [0m|| 3
[32;1m[Board] [0m  -------------------
[32;1m[Board] [0m2 ||[0;1mp[0m|[30;1mr[0m|[0;1mp[0m| |[7;1m [0m|[0;1mp[0m|[0;1mp[0m|[0;1mp[0m|| 2
[32;1m[Board] [0m  -------------------
[32;1m[Board] [0m1 ||[0;1mr[0m|[7;1m [0m|[0;1mb[0m|[7;1m [0m|[0;1mK[0m|[7;1m [0m|[0;1mk[0m|[0;1mr[0m|| 1
[32;1m[Board] [0m  -------------------
[32;1m[Board] [0m    a b c d e f g h
[32;1m[Board] [0m
[32;1m[Referee] [0mThis is the turn of the Black player...
[32;1m[Board] [0m[33;1m[WARNING][0m [5;1mBlack King in checkmate![0m
[32;1m[Board] [0m[33;1m[WARNING][0m The White player wins!
