[32;1m[Board] [0mInitializing board...
[32;1m[Board] [0m
[32;1m[Board] [0m    a b c d e f g h 
[32;1m[Board] [0m  -------------------
[32;1m[Board] [0m8 ||[30;1mr[0m|[30;1mk[0m|[30;1mb[0m|[30;1mQ[0m|[30;1mK[0m|[30;1mb[0m|[30;1mk[0m|[30;1mr[0m|| 8
[32;1m[Board] [0m  -------------------
[32;1m[Board] [0m7 ||[30;1mp[0m|[30;1mp[0m|[30;1mp[0m|[30;1mp[0m|[30;1mp[0m|[30;1mp[0m|[30;1mp[0m|[30;1mp[0m|| 7
[32;1m[Board] [0m  -------------------
[32;1m[Board] [0m6 ||[7;1m [0m| |[7;1m [0m| |[7;1m [0m| |[7;1m [0m| || 6
[32;1m[Board] [0m  -------------------
[32;1m[Board] [0m5 || |[7;1m [0m| |[7;1m [0m| |[7;1m [0m| |[7;1m [0m|| 5
[32;1m[Board] [0m  -------------------
[32;1m[Board] [0m4 ||[7;1m [0m| |[7;1m [0m| |[7;1m [0m| |[7;1m [0m| || 4
[32;1m[Board] [0m  -------------------
[32;1m[Board] [0m3 || |[7;1m [0m| |[7;1m [0m| |[7;1m [0m| |[7;1m [0m|| 3
[32;1m[Board] [0m  -------------------
[32;1m[Board] [0m2 ||[0;1mp[0m|[0;1mp[0m|[0;1mp[0m|[0;1mp[0m|[0;1mp[0m|[0;1mp[0m|[0;1mp[0m|[0;1mp[0m|| 2
[32;1m[Board] [0m  -------------------
[32;1m[Board] [0m1 ||[0;1mr[0m|[0;1mk[0m|[0;1mb[0m|[0;1mQ[0m|[0;1mK[0m|[0;1mb[0m|[0;1mk[0m|[0;1mr[0m|| 1
[32;1m[Board] [0m  -------------------
[32;1m[Board] [0m    a b c d e f g h
[32;1m[Board] [0m
[32;1m[Referee] [0mThis is the turn of the White player...
Input file: championship/lizzie-iii-chess-bot/history.csv
Output file: championship/lizzie-iii-chess-bot/move.csv
We are playing as White
Move history:
8 | R N B Q K B N R 
7 | P P P P P P P P 
6 | _ _ _ _ _ _ _ _ 
5 | _ _ _ _ _ _ _ _ 
4 | _ _ _ _ _ _ _ _ 
3 | _ _ _ _ _ _ _ _ 
2 | P P P P P P P P 
1 | R N B Q K B N R 
-------------------
  | A B C D E F G H 

It is white's turn to play.
AI's move: g1h3
Move written: g1h3
[32;1m[Game] [0mPlayer's error code: 0
[32;1m[Game] [0mChecking move validity...
[32;1m[Board] [0mInitializing board...
[32;1m[Board] [0mLoading history file `championship/lizzie-iii-chess-bot/history.csv`...
[32;1m[Board] [0mLoaded 0 move(s).
[32;1m[Board] [0mLoading move file `championship/lizzie-iii-chess-bot/move.csv`...
[32;1m[Board] [0mWhite player is playing g1 to h3.
[32;1m[Board] [0m
[32;1m[Board] [0m    a b c d e f g h 
[32;1m[Board] [0m  -------------------
[32;1m[Board] [0m8 ||[30;1mr[0m|[30;1mk[0m|[30;1mb[0m|[30;1mQ[0m|[30;1mK[0m|[30;1mb[0m|[30;1mk[0m|[30;1mr[0m|| 8
[32;1m[Board] [0m  -------------------
[32;1m[Board] [0m7 ||[30;1mp[0m|[30;1mp[0m|[30;1mp[0m|[30;1mp[0m|[30;1mp[0m|[30;1mp[0m|[30;1mp[0m|[30;1mp[0m|| 7
[32;1m[Board] [0m  -------------------
[32;1m[Board] [0m6 ||[7;1m [0m| |[7;1m [0m| |[7;1m [0m| |[7;1m [0m| || 6
[32;1m[Board] [0m  -------------------
[32;1m[Board] [0m5 || |[7;1m [0m| |[7;1m [0m| |[7;1m [0m| |[7;1m [0m|| 5
[32;1m[Board] [0m  -------------------
[32;1m[Board] [0m4 ||[7;1m [0m| |[7;1m [0m| |[7;1m [0m| |[7;1m [0m| || 4
[32;1m[Board] [0m  -------------------
[32;1m[Board] [0m3 || |[7;1m [0m| |[7;1m [0m| |[7;1m [0m| |[0;1mk[0m|| 3
[32;1m[Board] [0m  -------------------
[32;1m[Board] [0m2 ||[0;1mp[0m|[0;1mp[0m|[0;1mp[0m|[0;1mp[0m|[0;1mp[0m|[0;1mp[0m|[0;1mp[0m|[0;1mp[0m|| 2
[32;1m[Board] [0m  -------------------
[32;1m[Board] [0m1 ||[0;1mr[0m|[0;1mk[0m|[0;1mb[0m|[0;1mQ[0m|[0;1mK[0m|[0;1mb[0m| |[0;1mr[0m|| 1
[32;1m[Board] [0m  -------------------
[32;1m[Board] [0m    a b c d e f g h
[32;1m[Board] [0m
[32;1m[Referee] [0mThis is the turn of the Black player...
reading moves... done, got turn = 0.
finding legal moves... done, got 20 moves.
finding best one... done, displaying original position and new position:

original board:
|♜|♞|♝|♛|♚|♝|♞|♜|
|♟|♟|♟|♟|♟|♟|♟|♟|
| | | | | | | | |
| | | | | | | | |
| | | | | | | | |
| | | | | | | |♘|
|♙|♙|♙|♙|♙|♙|♙|♙|
|♖|♘|♗|♕|♔|♗| |♖|

new board:
|♜|♞|♝|♛|♚|♝|♞|♜|
|♟|♟|♟|♟|♟|♟|♟| |
| | | | | | | |♟|
| | | | | | | | |
| | | | | | | | |
| | | | | | | |♘|
|♙|♙|♙|♙|♙|♙|♙|♙|
|♖|♘|♗|♕|♔|♗| |♖|

creating move string... done. h7h6
creating output file... done.
[32;1m[Game] [0mPlayer's error code: 0
[32;1m[Game] [0mChecking move validity...
[32;1m[Board] [0mInitializing board...
[32;1m[Board] [0mLoading history file `championship/lizzie-iii-chess-bot/history.csv`...
[32;1m[Board] [0mLoaded 1 move(s).
[32;1m[Board] [0mLoading move file `championship/lizzie-iii-chess-bot/move.csv`...
[32;1m[Board] [0mBlack player is playing h7 to h6.
[32;1m[Board] [0m
[32;1m[Board] [0m    a b c d e f g h 
[32;1m[Board] [0m  -------------------
[32;1m[Board] [0m8 ||[30;1mr[0m|[30;1mk[0m|[30;1mb[0m|[30;1mQ[0m|[30;1mK[0m|[30;1mb[0m|[30;1mk[0m|[30;1mr[0m|| 8
[32;1m[Board] [0m  -------------------
[32;1m[Board] [0m7 ||[30;1mp[0m|[30;1mp[0m|[30;1mp[0m|[30;1mp[0m|[30;1mp[0m|[30;1mp[0m|[30;1mp[0m|[7;1m [0m|| 7
[32;1m[Board] [0m  -------------------
[32;1m[Board] [0m6 ||[7;1m [0m| |[7;1m [0m| |[7;1m [0m| |[7;1m [0m|[30;1mp[0m|| 6
[32;1m[Board] [0m  -------------------
[32;1m[Board] [0m5 || |[7;1m [0m| |[7;1m [0m| |[7;1m [0m| |[7;1m [0m|| 5
[32;1m[Board] [0m  -------------------
[32;1m[Board] [0m4 ||[7;1m [0m| |[7;1m [0m| |[7;1m [0m| |[7;1m [0m| || 4
[32;1m[Board] [0m  -------------------
[32;1m[Board] [0m3 || |[7;1m [0m| |[7;1m [0m| |[7;1m [0m| |[0;1mk[0m|| 3
[32;1m[Board] [0m  -------------------
[32;1m[Board] [0m2 ||[0;1mp[0m|[0;1mp[0m|[0;1mp[0m|[0;1mp[0m|[0;1mp[0m|[0;1mp[0m|[0;1mp[0m|[0;1mp[0m|| 2
[32;1m[Board] [0m  -------------------
[32;1m[Board] [0m1 ||[0;1mr[0m|[0;1mk[0m|[0;1mb[0m|[0;1mQ[0m|[0;1mK[0m|[0;1mb[0m| |[0;1mr[0m|| 1
[32;1m[Board] [0m  -------------------
[32;1m[Board] [0m    a b c d e f g h
[32;1m[Board] [0m
[32;1m[Referee] [0mThis is the turn of the White player...
Input file: championship/lizzie-iii-chess-bot/history.csv
Output file: championship/lizzie-iii-chess-bot/move.csv
Turn of: white
Succesful move
g1h3
8 | R N B Q K B N R 
7 | P P P P P P P P 
6 | _ _ _ _ _ _ _ _ 
5 | _ _ _ _ _ _ _ _ 
4 | _ _ _ _ _ _ _ _ 
3 | _ _ _ _ _ _ _ N 
2 | P P P P P P P P 
1 | R N B Q K B _ R 
-------------------
  | A B C D E F G H 

Turn of: black
Succesful move
h7h6
8 | R N B Q K B N R 
7 | P P P P P P P _ 
6 | _ _ _ _ _ _ _ P 
5 | _ _ _ _ _ _ _ _ 
4 | _ _ _ _ _ _ _ _ 
3 | _ _ _ _ _ _ _ N 
2 | P P P P P P P P 
1 | R N B Q K B _ R 
-------------------
  | A B C D E F G H 

We are playing as White
Move history:
g1h3
h7h6
8 | R N B Q K B N R 
7 | P P P P P P P _ 
6 | _ _ _ _ _ _ _ P 
5 | _ _ _ _ _ _ _ _ 
4 | _ _ _ _ _ _ _ _ 
3 | _ _ _ _ _ _ _ N 
2 | P P P P P P P P 
1 | R N B Q K B _ R 
-------------------
  | A B C D E F G H 

It is white's turn to play.
AI's move: b1c3
Move written: b1c3
[32;1m[Game] [0mPlayer's error code: 0
[32;1m[Game] [0mChecking move validity...
[32;1m[Board] [0mInitializing board...
[32;1m[Board] [0mLoading history file `championship/lizzie-iii-chess-bot/history.csv`...
[32;1m[Board] [0mLoaded 2 move(s).
[32;1m[Board] [0mLoading move file `championship/lizzie-iii-chess-bot/move.csv`...
[32;1m[Board] [0mWhite player is playing b1 to c3.
[32;1m[Board] [0m
[32;1m[Board] [0m    a b c d e f g h 
[32;1m[Board] [0m  -------------------
[32;1m[Board] [0m8 ||[30;1mr[0m|[30;1mk[0m|[30;1mb[0m|[30;1mQ[0m|[30;1mK[0m|[30;1mb[0m|[30;1mk[0m|[30;1mr[0m|| 8
[32;1m[Board] [0m  -------------------
[32;1m[Board] [0m7 ||[30;1mp[0m|[30;1mp[0m|[30;1mp[0m|[30;1mp[0m|[30;1mp[0m|[30;1mp[0m|[30;1mp[0m|[7;1m [0m|| 7
[32;1m[Board] [0m  -------------------
[32;1m[Board] [0m6 ||[7;1m [0m| |[7;1m [0m| |[7;1m [0m| |[7;1m [0m|[30;1mp[0m|| 6
[32;1m[Board] [0m  -------------------
[32;1m[Board] [0m5 || |[7;1m [0m| |[7;1m [0m| |[7;1m [0m| |[7;1m [0m|| 5
[32;1m[Board] [0m  -------------------
[32;1m[Board] [0m4 ||[7;1m [0m| |[7;1m [0m| |[7;1m [0m| |[7;1m [0m| || 4
[32;1m[Board] [0m  -------------------
[32;1m[Board] [0m3 || |[7;1m [0m|[0;1mk[0m|[7;1m [0m| |[7;1m [0m| |[0;1mk[0m|| 3
[32;1m[Board] [0m  -------------------
[32;1m[Board] [0m2 ||[0;1mp[0m|[0;1mp[0m|[0;1mp[0m|[0;1mp[0m|[0;1mp[0m|[0;1mp[0m|[0;1mp[0m|[0;1mp[0m|| 2
[32;1m[Board] [0m  -------------------
[32;1m[Board] [0m1 ||[0;1mr[0m|[7;1m [0m|[0;1mb[0m|[0;1mQ[0m|[0;1mK[0m|[0;1mb[0m| |[0;1mr[0m|| 1
[32;1m[Board] [0m  -------------------
[32;1m[Board] [0m    a b c d e f g h
[32;1m[Board] [0m
[32;1m[Referee] [0mThis is the turn of the Black player...
reading moves... done, got turn = 0.
finding legal moves... done, got 19 moves.
finding best one... done, displaying original position and new position:

original board:
|♜|♞|♝|♛|♚|♝|♞|♜|
|♟|♟|♟|♟|♟|♟|♟| |
| | | | | | | |♟|
| | | | | | | | |
| | | | | | | | |
| | |♘| | | | |♘|
|♙|♙|♙|♙|♙|♙|♙|♙|
|♖| |♗|♕|♔|♗| |♖|

new board:
|♜|♞|♝|♛|♚|♝|♞|♜|
|♟|♟|♟|♟|♟|♟| | |
| | | | | | |♟|♟|
| | | | | | | | |
| | | | | | | | |
| | |♘| | | | |♘|
|♙|♙|♙|♙|♙|♙|♙|♙|
|♖| |♗|♕|♔|♗| |♖|

creating move string... done. g7g6
creating output file... done.
[32;1m[Game] [0mPlayer's error code: 0
[32;1m[Game] [0mChecking move validity...
[32;1m[Board] [0mInitializing board...
[32;1m[Board] [0mLoading history file `championship/lizzie-iii-chess-bot/history.csv`...
[32;1m[Board] [0mLoaded 3 move(s).
[32;1m[Board] [0mLoading move file `championship/lizzie-iii-chess-bot/move.csv`...
[32;1m[Board] [0mBlack player is playing g7 to g6.
[32;1m[Board] [0m
[32;1m[Board] [0m    a b c d e f g h 
[32;1m[Board] [0m  -------------------
[32;1m[Board] [0m8 ||[30;1mr[0m|[30;1mk[0m|[30;1mb[0m|[30;1mQ[0m|[30;1mK[0m|[30;1mb[0m|[30;1mk[0m|[30;1mr[0m|| 8
[32;1m[Board] [0m  -------------------
[32;1m[Board] [0m7 ||[30;1mp[0m|[30;1mp[0m|[30;1mp[0m|[30;1mp[0m|[30;1mp[0m|[30;1mp[0m| |[7;1m [0m|| 7
[32;1m[Board] [0m  -------------------
[32;1m[Board] [0m6 ||[7;1m [0m| |[7;1m [0m| |[7;1m [0m| |[30;1mp[0m|[30;1mp[0m|| 6
[32;1m[Board] [0m  -------------------
[32;1m[Board] [0m5 || |[7;1m [0m| |[7;1m [0m| |[7;1m [0m| |[7;1m [0m|| 5
[32;1m[Board] [0m  -------------------
[32;1m[Board] [0m4 ||[7;1m [0m| |[7;1m [0m| |[7;1m [0m| |[7;1m [0m| || 4
[32;1m[Board] [0m  -------------------
[32;1m[Board] [0m3 || |[7;1m [0m|[0;1mk[0m|[7;1m [0m| |[7;1m [0m| |[0;1mk[0m|| 3
[32;1m[Board] [0m  -------------------
[32;1m[Board] [0m2 ||[0;1mp[0m|[0;1mp[0m|[0;1mp[0m|[0;1mp[0m|[0;1mp[0m|[0;1mp[0m|[0;1mp[0m|[0;1mp[0m|| 2
[32;1m[Board] [0m  -------------------
[32;1m[Board] [0m1 ||[0;1mr[0m|[7;1m [0m|[0;1mb[0m|[0;1mQ[0m|[0;1mK[0m|[0;1mb[0m| |[0;1mr[0m|| 1
[32;1m[Board] [0m  -------------------
[32;1m[Board] [0m    a b c d e f g h
[32;1m[Board] [0m
[32;1m[Referee] [0mThis is the turn of the White player...
Input file: championship/lizzie-iii-chess-bot/history.csv
Output file: championship/lizzie-iii-chess-bot/move.csv
Turn of: white
Succesful move
g1h3
8 | R N B Q K B N R 
7 | P P P P P P P P 
6 | _ _ _ _ _ _ _ _ 
5 | _ _ _ _ _ _ _ _ 
4 | _ _ _ _ _ _ _ _ 
3 | _ _ _ _ _ _ _ N 
2 | P P P P P P P P 
1 | R N B Q K B _ R 
-------------------
  | A B C D E F G H 

Turn of: black
Succesful move
h7h6
8 | R N B Q K B N R 
7 | P P P P P P P _ 
6 | _ _ _ _ _ _ _ P 
5 | _ _ _ _ _ _ _ _ 
4 | _ _ _ _ _ _ _ _ 
3 | _ _ _ _ _ _ _ N 
2 | P P P P P P P P 
1 | R N B Q K B _ R 
-------------------
  | A B C D E F G H 

Turn of: white
Succesful move
b1c3
8 | R N B Q K B N R 
7 | P P P P P P P _ 
6 | _ _ _ _ _ _ _ P 
5 | _ _ _ _ _ _ _ _ 
4 | _ _ _ _ _ _ _ _ 
3 | _ _ N _ _ _ _ N 
2 | P P P P P P P P 
1 | R _ B Q K B _ R 
-------------------
  | A B C D E F G H 

Turn of: black
Succesful move
g7g6
8 | R N B Q K B N R 
7 | P P P P P P _ _ 
6 | _ _ _ _ _ _ P P 
5 | _ _ _ _ _ _ _ _ 
4 | _ _ _ _ _ _ _ _ 
3 | _ _ N _ _ _ _ N 
2 | P P P P P P P P 
1 | R _ B Q K B _ R 
-------------------
  | A B C D E F G H 

We are playing as White
Move history:
g1h3
h7h6
b1c3
g7g6
8 | R N B Q K B N R 
7 | P P P P P P _ _ 
6 | _ _ _ _ _ _ P P 
5 | _ _ _ _ _ _ _ _ 
4 | _ _ _ _ _ _ _ _ 
3 | _ _ N _ _ _ _ N 
2 | P P P P P P P P 
1 | R _ B Q K B _ R 
-------------------
  | A B C D E F G H 

It is white's turn to play.
AI's move: g2g4
Move written: g2g4
[32;1m[Game] [0mPlayer's error code: 0
[32;1m[Game] [0mChecking move validity...
[32;1m[Board] [0mInitializing board...
[32;1m[Board] [0mLoading history file `championship/lizzie-iii-chess-bot/history.csv`...
[32;1m[Board] [0mLoaded 4 move(s).
[32;1m[Board] [0mLoading move file `championship/lizzie-iii-chess-bot/move.csv`...
[32;1m[Board] [0mWhite player is playing g2 to g4.
[32;1m[Board] [0m
[32;1m[Board] [0m    a b c d e f g h 
[32;1m[Board] [0m  -------------------
[32;1m[Board] [0m8 ||[30;1mr[0m|[30;1mk[0m|[30;1mb[0m|[30;1mQ[0m|[30;1mK[0m|[30;1mb[0m|[30;1mk[0m|[30;1mr[0m|| 8
[32;1m[Board] [0m  -------------------
[32;1m[Board] [0m7 ||[30;1mp[0m|[30;1mp[0m|[30;1mp[0m|[30;1mp[0m|[30;1mp[0m|[30;1mp[0m| |[7;1m [0m|| 7
[32;1m[Board] [0m  -------------------
[32;1m[Board] [0m6 ||[7;1m [0m| |[7;1m [0m| |[7;1m [0m| |[30;1mp[0m|[30;1mp[0m|| 6
[32;1m[Board] [0m  -------------------
[32;1m[Board] [0m5 || |[7;1m [0m| |[7;1m [0m| |[7;1m [0m| |[7;1m [0m|| 5
[32;1m[Board] [0m  -------------------
[32;1m[Board] [0m4 ||[7;1m [0m| |[7;1m [0m| |[7;1m [0m| |[0;1mp[0m| || 4
[32;1m[Board] [0m  -------------------
[32;1m[Board] [0m3 || |[7;1m [0m|[0;1mk[0m|[7;1m [0m| |[7;1m [0m| |[0;1mk[0m|| 3
[32;1m[Board] [0m  -------------------
[32;1m[Board] [0m2 ||[0;1mp[0m|[0;1mp[0m|[0;1mp[0m|[0;1mp[0m|[0;1mp[0m|[0;1mp[0m|[7;1m [0m|[0;1mp[0m|| 2
[32;1m[Board] [0m  -------------------
[32;1m[Board] [0m1 ||[0;1mr[0m|[7;1m [0m|[0;1mb[0m|[0;1mQ[0m|[0;1mK[0m|[0;1mb[0m| |[0;1mr[0m|| 1
[32;1m[Board] [0m  -------------------
[32;1m[Board] [0m    a b c d e f g h
[32;1m[Board] [0m
[32;1m[Referee] [0mThis is the turn of the Black player...
reading moves... done, got turn = 0.
finding legal moves... done, got 19 moves.
finding best one... done, displaying original position and new position:

original board:
|♜|♞|♝|♛|♚|♝|♞|♜|
|♟|♟|♟|♟|♟|♟| | |
| | | | | | |♟|♟|
| | | | | | | | |
| | | | | | |♙| |
| | |♘| | | | |♘|
|♙|♙|♙|♙|♙|♙| |♙|
|♖| |♗|♕|♔|♗| |♖|

new board:
|♜|♞|♝|♛|♚|♝|♞|♜|
|♟|♟|♟| |♟|♟| | |
| | | |♟| | |♟|♟|
| | | | | | | | |
| | | | | | |♙| |
| | |♘| | | | |♘|
|♙|♙|♙|♙|♙|♙| |♙|
|♖| |♗|♕|♔|♗| |♖|

creating move string... done. d7d6
creating output file... done.
[32;1m[Game] [0mPlayer's error code: 0
[32;1m[Game] [0mChecking move validity...
[32;1m[Board] [0mInitializing board...
[32;1m[Board] [0mLoading history file `championship/lizzie-iii-chess-bot/history.csv`...
[32;1m[Board] [0mLoaded 5 move(s).
[32;1m[Board] [0mLoading move file `championship/lizzie-iii-chess-bot/move.csv`...
[32;1m[Board] [0mBlack player is playing d7 to d6.
[32;1m[Board] [0m
[32;1m[Board] [0m    a b c d e f g h 
[32;1m[Board] [0m  -------------------
[32;1m[Board] [0m8 ||[30;1mr[0m|[30;1mk[0m|[30;1mb[0m|[30;1mQ[0m|[30;1mK[0m|[30;1mb[0m|[30;1mk[0m|[30;1mr[0m|| 8
[32;1m[Board] [0m  -------------------
[32;1m[Board] [0m7 ||[30;1mp[0m|[30;1mp[0m|[30;1mp[0m|[7;1m [0m|[30;1mp[0m|[30;1mp[0m| |[7;1m [0m|| 7
[32;1m[Board] [0m  -------------------
[32;1m[Board] [0m6 ||[7;1m [0m| |[7;1m [0m|[30;1mp[0m|[7;1m [0m| |[30;1mp[0m|[30;1mp[0m|| 6
[32;1m[Board] [0m  -------------------
[32;1m[Board] [0m5 || |[7;1m [0m| |[7;1m [0m| |[7;1m [0m| |[7;1m [0m|| 5
[32;1m[Board] [0m  -------------------
[32;1m[Board] [0m4 ||[7;1m [0m| |[7;1m [0m| |[7;1m [0m| |[0;1mp[0m| || 4
[32;1m[Board] [0m  -------------------
[32;1m[Board] [0m3 || |[7;1m [0m|[0;1mk[0m|[7;1m [0m| |[7;1m [0m| |[0;1mk[0m|| 3
[32;1m[Board] [0m  -------------------
[32;1m[Board] [0m2 ||[0;1mp[0m|[0;1mp[0m|[0;1mp[0m|[0;1mp[0m|[0;1mp[0m|[0;1mp[0m|[7;1m [0m|[0;1mp[0m|| 2
[32;1m[Board] [0m  -------------------
[32;1m[Board] [0m1 ||[0;1mr[0m|[7;1m [0m|[0;1mb[0m|[0;1mQ[0m|[0;1mK[0m|[0;1mb[0m| |[0;1mr[0m|| 1
[32;1m[Board] [0m  -------------------
[32;1m[Board] [0m    a b c d e f g h
[32;1m[Board] [0m
[32;1m[Referee] [0mThis is the turn of the White player...
Input file: championship/lizzie-iii-chess-bot/history.csv
Output file: championship/lizzie-iii-chess-bot/move.csv
Turn of: white
Succesful move
g1h3
8 | R N B Q K B N R 
7 | P P P P P P P P 
6 | _ _ _ _ _ _ _ _ 
5 | _ _ _ _ _ _ _ _ 
4 | _ _ _ _ _ _ _ _ 
3 | _ _ _ _ _ _ _ N 
2 | P P P P P P P P 
1 | R N B Q K B _ R 
-------------------
  | A B C D E F G H 

Turn of: black
Succesful move
h7h6
8 | R N B Q K B N R 
7 | P P P P P P P _ 
6 | _ _ _ _ _ _ _ P 
5 | _ _ _ _ _ _ _ _ 
4 | _ _ _ _ _ _ _ _ 
3 | _ _ _ _ _ _ _ N 
2 | P P P P P P P P 
1 | R N B Q K B _ R 
-------------------
  | A B C D E F G H 

Turn of: white
Succesful move
b1c3
8 | R N B Q K B N R 
7 | P P P P P P P _ 
6 | _ _ _ _ _ _ _ P 
5 | _ _ _ _ _ _ _ _ 
4 | _ _ _ _ _ _ _ _ 
3 | _ _ N _ _ _ _ N 
2 | P P P P P P P P 
1 | R _ B Q K B _ R 
-------------------
  | A B C D E F G H 

Turn of: black
Succesful move
g7g6
8 | R N B Q K B N R 
7 | P P P P P P _ _ 
6 | _ _ _ _ _ _ P P 
5 | _ _ _ _ _ _ _ _ 
4 | _ _ _ _ _ _ _ _ 
3 | _ _ N _ _ _ _ N 
2 | P P P P P P P P 
1 | R _ B Q K B _ R 
-------------------
  | A B C D E F G H 

Turn of: white
Succesful move
g2g4
8 | R N B Q K B N R 
7 | P P P P P P _ _ 
6 | _ _ _ _ _ _ P P 
5 | _ _ _ _ _ _ _ _ 
4 | _ _ _ _ _ _ P _ 
3 | _ _ N _ _ _ _ N 
2 | P P P P P P _ P 
1 | R _ B Q K B _ R 
-------------------
  | A B C D E F G H 

Turn of: black
Succesful move
d7d6
8 | R N B Q K B N R 
7 | P P P _ P P _ _ 
6 | _ _ _ P _ _ P P 
5 | _ _ _ _ _ _ _ _ 
4 | _ _ _ _ _ _ P _ 
3 | _ _ N _ _ _ _ N 
2 | P P P P P P _ P 
1 | R _ B Q K B _ R 
-------------------
  | A B C D E F G H 

We are playing as White
Move history:
g1h3
h7h6
b1c3
g7g6
g2g4
d7d6
8 | R N B Q K B N R 
7 | P P P _ P P _ _ 
6 | _ _ _ P _ _ P P 
5 | _ _ _ _ _ _ _ _ 
4 | _ _ _ _ _ _ P _ 
3 | _ _ N _ _ _ _ N 
2 | P P P P P P _ P 
1 | R _ B Q K B _ R 
-------------------
  | A B C D E F G H 

It is white's turn to play.
AI's move: b2b4
Move written: b2b4
[32;1m[Game] [0mPlayer's error code: 0
[32;1m[Game] [0mChecking move validity...
[32;1m[Board] [0mInitializing board...
[32;1m[Board] [0mLoading history file `championship/lizzie-iii-chess-bot/history.csv`...
[32;1m[Board] [0mLoaded 6 move(s).
[32;1m[Board] [0mLoading move file `championship/lizzie-iii-chess-bot/move.csv`...
[32;1m[Board] [0mWhite player is playing b2 to b4.
[32;1m[Board] [0m
[32;1m[Board] [0m    a b c d e f g h 
[32;1m[Board] [0m  -------------------
[32;1m[Board] [0m8 ||[30;1mr[0m|[30;1mk[0m|[30;1mb[0m|[30;1mQ[0m|[30;1mK[0m|[30;1mb[0m|[30;1mk[0m|[30;1mr[0m|| 8
[32;1m[Board] [0m  -------------------
[32;1m[Board] [0m7 ||[30;1mp[0m|[30;1mp[0m|[30;1mp[0m|[7;1m [0m|[30;1mp[0m|[30;1mp[0m| |[7;1m [0m|| 7
[32;1m[Board] [0m  -------------------
[32;1m[Board] [0m6 ||[7;1m [0m| |[7;1m [0m|[30;1mp[0m|[7;1m [0m| |[30;1mp[0m|[30;1mp[0m|| 6
[32;1m[Board] [0m  -------------------
[32;1m[Board] [0m5 || |[7;1m [0m| |[7;1m [0m| |[7;1m [0m| |[7;1m [0m|| 5
[32;1m[Board] [0m  -------------------
[32;1m[Board] [0m4 ||[7;1m [0m|[0;1mp[0m|[7;1m [0m| |[7;1m [0m| |[0;1mp[0m| || 4
[32;1m[Board] [0m  -------------------
[32;1m[Board] [0m3 || |[7;1m [0m|[0;1mk[0m|[7;1m [0m| |[7;1m [0m| |[0;1mk[0m|| 3
[32;1m[Board] [0m  -------------------
[32;1m[Board] [0m2 ||[0;1mp[0m| |[0;1mp[0m|[0;1mp[0m|[0;1mp[0m|[0;1mp[0m|[7;1m [0m|[0;1mp[0m|| 2
[32;1m[Board] [0m  -------------------
[32;1m[Board] [0m1 ||[0;1mr[0m|[7;1m [0m|[0;1mb[0m|[0;1mQ[0m|[0;1mK[0m|[0;1mb[0m| |[0;1mr[0m|| 1
[32;1m[Board] [0m  -------------------
[32;1m[Board] [0m    a b c d e f g h
[32;1m[Board] [0m
[32;1m[Referee] [0mThis is the turn of the Black player...
reading moves... done, got turn = 0.
finding legal moves... done, got 25 moves.
finding best one... done, displaying original position and new position:

original board:
|♜|♞|♝|♛|♚|♝|♞|♜|
|♟|♟|♟| |♟|♟| | |
| | | |♟| | |♟|♟|
| | | | | | | | |
| |♙| | | | |♙| |
| | |♘| | | | |♘|
|♙| |♙|♙|♙|♙| |♙|
|♖| |♗|♕|♔|♗| |♖|

new board:
|♜|♞| |♛|♚|♝|♞|♜|
|♟|♟|♟| |♟|♟| | |
| | | |♟| | |♟|♟|
| | | | | | | | |
| |♙| | | | |♝| |
| | |♘| | | | |♘|
|♙| |♙|♙|♙|♙| |♙|
|♖| |♗|♕|♔|♗| |♖|

creating move string... done. c8g4
creating output file... done.
[32;1m[Game] [0mPlayer's error code: 0
[32;1m[Game] [0mChecking move validity...
[32;1m[Board] [0mInitializing board...
[32;1m[Board] [0mLoading history file `championship/lizzie-iii-chess-bot/history.csv`...
[32;1m[Board] [0mLoaded 7 move(s).
[32;1m[Board] [0mLoading move file `championship/lizzie-iii-chess-bot/move.csv`...
[32;1m[Board] [0mBlack player is playing c8 to g4.
[32;1m[Board] [0m[5;1mBlack Bishop is taking White Pawn.[0m
[32;1m[Board] [0m
[32;1m[Board] [0m    a b c d e f g h 
[32;1m[Board] [0m  -------------------
[32;1m[Board] [0m8 ||[30;1mr[0m|[30;1mk[0m|[7;1m [0m|[30;1mQ[0m|[30;1mK[0m|[30;1mb[0m|[30;1mk[0m|[30;1mr[0m|| 8
[32;1m[Board] [0m  -------------------
[32;1m[Board] [0m7 ||[30;1mp[0m|[30;1mp[0m|[30;1mp[0m|[7;1m [0m|[30;1mp[0m|[30;1mp[0m| |[7;1m [0m|| 7
[32;1m[Board] [0m  -------------------
[32;1m[Board] [0m6 ||[7;1m [0m| |[7;1m [0m|[30;1mp[0m|[7;1m [0m| |[30;1mp[0m|[30;1mp[0m|| 6
[32;1m[Board] [0m  -------------------
[32;1m[Board] [0m5 || |[7;1m [0m| |[7;1m [0m| |[7;1m [0m| |[7;1m [0m|| 5
[32;1m[Board] [0m  -------------------
[32;1m[Board] [0m4 ||[7;1m [0m|[0;1mp[0m|[7;1m [0m| |[7;1m [0m| |[30;1mb[0m| || 4
[32;1m[Board] [0m  -------------------
[32;1m[Board] [0m3 || |[7;1m [0m|[0;1mk[0m|[7;1m [0m| |[7;1m [0m| |[0;1mk[0m|| 3
[32;1m[Board] [0m  -------------------
[32;1m[Board] [0m2 ||[0;1mp[0m| |[0;1mp[0m|[0;1mp[0m|[0;1mp[0m|[0;1mp[0m|[7;1m [0m|[0;1mp[0m|| 2
[32;1m[Board] [0m  -------------------
[32;1m[Board] [0m1 ||[0;1mr[0m|[7;1m [0m|[0;1mb[0m|[0;1mQ[0m|[0;1mK[0m|[0;1mb[0m| |[0;1mr[0m|| 1
[32;1m[Board] [0m  -------------------
[32;1m[Board] [0m    a b c d e f g h
[32;1m[Board] [0m
[32;1m[Referee] [0mThis is the turn of the White player...
Input file: championship/lizzie-iii-chess-bot/history.csv
Output file: championship/lizzie-iii-chess-bot/move.csv
Turn of: white
Succesful move
g1h3
8 | R N B Q K B N R 
7 | P P P P P P P P 
6 | _ _ _ _ _ _ _ _ 
5 | _ _ _ _ _ _ _ _ 
4 | _ _ _ _ _ _ _ _ 
3 | _ _ _ _ _ _ _ N 
2 | P P P P P P P P 
1 | R N B Q K B _ R 
-------------------
  | A B C D E F G H 

Turn of: black
Succesful move
h7h6
8 | R N B Q K B N R 
7 | P P P P P P P _ 
6 | _ _ _ _ _ _ _ P 
5 | _ _ _ _ _ _ _ _ 
4 | _ _ _ _ _ _ _ _ 
3 | _ _ _ _ _ _ _ N 
2 | P P P P P P P P 
1 | R N B Q K B _ R 
-------------------
  | A B C D E F G H 

Turn of: white
Succesful move
b1c3
8 | R N B Q K B N R 
7 | P P P P P P P _ 
6 | _ _ _ _ _ _ _ P 
5 | _ _ _ _ _ _ _ _ 
4 | _ _ _ _ _ _ _ _ 
3 | _ _ N _ _ _ _ N 
2 | P P P P P P P P 
1 | R _ B Q K B _ R 
-------------------
  | A B C D E F G H 

Turn of: black
Succesful move
g7g6
8 | R N B Q K B N R 
7 | P P P P P P _ _ 
6 | _ _ _ _ _ _ P P 
5 | _ _ _ _ _ _ _ _ 
4 | _ _ _ _ _ _ _ _ 
3 | _ _ N _ _ _ _ N 
2 | P P P P P P P P 
1 | R _ B Q K B _ R 
-------------------
  | A B C D E F G H 

Turn of: white
Succesful move
g2g4
8 | R N B Q K B N R 
7 | P P P P P P _ _ 
6 | _ _ _ _ _ _ P P 
5 | _ _ _ _ _ _ _ _ 
4 | _ _ _ _ _ _ P _ 
3 | _ _ N _ _ _ _ N 
2 | P P P P P P _ P 
1 | R _ B Q K B _ R 
-------------------
  | A B C D E F G H 

Turn of: black
Succesful move
d7d6
8 | R N B Q K B N R 
7 | P P P _ P P _ _ 
6 | _ _ _ P _ _ P P 
5 | _ _ _ _ _ _ _ _ 
4 | _ _ _ _ _ _ P _ 
3 | _ _ N _ _ _ _ N 
2 | P P P P P P _ P 
1 | R _ B Q K B _ R 
-------------------
  | A B C D E F G H 

Turn of: white
Succesful move
b2b4
8 | R N B Q K B N R 
7 | P P P _ P P _ _ 
6 | _ _ _ P _ _ P P 
5 | _ _ _ _ _ _ _ _ 
4 | _ P _ _ _ _ P _ 
3 | _ _ N _ _ _ _ N 
2 | P _ P P P P _ P 
1 | R _ B Q K B _ R 
-------------------
  | A B C D E F G H 

Turn of: black
Succesful move
c8g4
8 | R N _ Q K B N R 
7 | P P P _ P P _ _ 
6 | _ _ _ P _ _ P P 
5 | _ _ _ _ _ _ _ _ 
4 | _ P _ _ _ _ B _ 
3 | _ _ N _ _ _ _ N 
2 | P _ P P P P _ P 
1 | R _ B Q K B _ R 
-------------------
  | A B C D E F G H 

We are playing as White
Move history:
g1h3
h7h6
b1c3
g7g6
g2g4
d7d6
b2b4
c8g4
8 | R N _ Q K B N R 
7 | P P P _ P P _ _ 
6 | _ _ _ P _ _ P P 
5 | _ _ _ _ _ _ _ _ 
4 | _ P _ _ _ _ B _ 
3 | _ _ N _ _ _ _ N 
2 | P _ P P P P _ P 
1 | R _ B Q K B _ R 
-------------------
  | A B C D E F G H 

It is white's turn to play.
AI's move: a2a4
Move written: a2a4
[32;1m[Game] [0mPlayer's error code: 0
[32;1m[Game] [0mChecking move validity...
[32;1m[Board] [0mInitializing board...
[32;1m[Board] [0mLoading history file `championship/lizzie-iii-chess-bot/history.csv`...
[32;1m[Board] [0mLoaded 8 move(s).
[32;1m[Board] [0mLoading move file `championship/lizzie-iii-chess-bot/move.csv`...
[32;1m[Board] [0mWhite player is playing a2 to a4.
[32;1m[Board] [0m
[32;1m[Board] [0m    a b c d e f g h 
[32;1m[Board] [0m  -------------------
[32;1m[Board] [0m8 ||[30;1mr[0m|[30;1mk[0m|[7;1m [0m|[30;1mQ[0m|[30;1mK[0m|[30;1mb[0m|[30;1mk[0m|[30;1mr[0m|| 8
[32;1m[Board] [0m  -------------------
[32;1m[Board] [0m7 ||[30;1mp[0m|[30;1mp[0m|[30;1mp[0m|[7;1m [0m|[30;1mp[0m|[30;1mp[0m| |[7;1m [0m|| 7
[32;1m[Board] [0m  -------------------
[32;1m[Board] [0m6 ||[7;1m [0m| |[7;1m [0m|[30;1mp[0m|[7;1m [0m| |[30;1mp[0m|[30;1mp[0m|| 6
[32;1m[Board] [0m  -------------------
[32;1m[Board] [0m5 || |[7;1m [0m| |[7;1m [0m| |[7;1m [0m| |[7;1m [0m|| 5
[32;1m[Board] [0m  -------------------
[32;1m[Board] [0m4 ||[0;1mp[0m|[0;1mp[0m|[7;1m [0m| |[7;1m [0m| |[30;1mb[0m| || 4
[32;1m[Board] [0m  -------------------
[32;1m[Board] [0m3 || |[7;1m [0m|[0;1mk[0m|[7;1m [0m| |[7;1m [0m| |[0;1mk[0m|| 3
[32;1m[Board] [0m  -------------------
[32;1m[Board] [0m2 ||[7;1m [0m| |[0;1mp[0m|[0;1mp[0m|[0;1mp[0m|[0;1mp[0m|[7;1m [0m|[0;1mp[0m|| 2
[32;1m[Board] [0m  -------------------
[32;1m[Board] [0m1 ||[0;1mr[0m|[7;1m [0m|[0;1mb[0m|[0;1mQ[0m|[0;1mK[0m|[0;1mb[0m| |[0;1mr[0m|| 1
[32;1m[Board] [0m  -------------------
[32;1m[Board] [0m    a b c d e f g h
[32;1m[Board] [0m
[32;1m[Referee] [0mThis is the turn of the Black player...
reading moves... Captured wp!
done, got turn = 0.
finding legal moves... done, got 30 moves.
finding best one... done, displaying original position and new position:

original board:
|♜|♞| |♛|♚|♝|♞|♜|
|♟|♟|♟| |♟|♟| | |
| | | |♟| | |♟|♟|
| | | | | | | | |
|♙|♙| | | | |♝| |
| | |♘| | | | |♘|
| | |♙|♙|♙|♙| |♙|
|♖| |♗|♕|♔|♗| |♖|

new board:
|♜|♞| |♛|♚| |♞|♜|
|♟|♟|♟| |♟|♟|♝| |
| | | |♟| | |♟|♟|
| | | | | | | | |
|♙|♙| | | | |♝| |
| | |♘| | | | |♘|
| | |♙|♙|♙|♙| |♙|
|♖| |♗|♕|♔|♗| |♖|

creating move string... done. f8g7
creating output file... done.
[32;1m[Game] [0mPlayer's error code: 0
[32;1m[Game] [0mChecking move validity...
[32;1m[Board] [0mInitializing board...
[32;1m[Board] [0mLoading history file `championship/lizzie-iii-chess-bot/history.csv`...
[32;1m[Board] [0mLoaded 9 move(s).
[32;1m[Board] [0mLoading move file `championship/lizzie-iii-chess-bot/move.csv`...
[32;1m[Board] [0mBlack player is playing f8 to g7.
[32;1m[Board] [0m
[32;1m[Board] [0m    a b c d e f g h 
[32;1m[Board] [0m  -------------------
[32;1m[Board] [0m8 ||[30;1mr[0m|[30;1mk[0m|[7;1m [0m|[30;1mQ[0m|[30;1mK[0m| |[30;1mk[0m|[30;1mr[0m|| 8
[32;1m[Board] [0m  -------------------
[32;1m[Board] [0m7 ||[30;1mp[0m|[30;1mp[0m|[30;1mp[0m|[7;1m [0m|[30;1mp[0m|[30;1mp[0m|[30;1mb[0m|[7;1m [0m|| 7
[32;1m[Board] [0m  -------------------
[32;1m[Board] [0m6 ||[7;1m [0m| |[7;1m [0m|[30;1mp[0m|[7;1m [0m| |[30;1mp[0m|[30;1mp[0m|| 6
[32;1m[Board] [0m  -------------------
[32;1m[Board] [0m5 || |[7;1m [0m| |[7;1m [0m| |[7;1m [0m| |[7;1m [0m|| 5
[32;1m[Board] [0m  -------------------
[32;1m[Board] [0m4 ||[0;1mp[0m|[0;1mp[0m|[7;1m [0m| |[7;1m [0m| |[30;1mb[0m| || 4
[32;1m[Board] [0m  -------------------
[32;1m[Board] [0m3 || |[7;1m [0m|[0;1mk[0m|[7;1m [0m| |[7;1m [0m| |[0;1mk[0m|| 3
[32;1m[Board] [0m  -------------------
[32;1m[Board] [0m2 ||[7;1m [0m| |[0;1mp[0m|[0;1mp[0m|[0;1mp[0m|[0;1mp[0m|[7;1m [0m|[0;1mp[0m|| 2
[32;1m[Board] [0m  -------------------
[32;1m[Board] [0m1 ||[0;1mr[0m|[7;1m [0m|[0;1mb[0m|[0;1mQ[0m|[0;1mK[0m|[0;1mb[0m| |[0;1mr[0m|| 1
[32;1m[Board] [0m  -------------------
[32;1m[Board] [0m    a b c d e f g h
[32;1m[Board] [0m
[32;1m[Referee] [0mThis is the turn of the White player...
Input file: championship/lizzie-iii-chess-bot/history.csv
Output file: championship/lizzie-iii-chess-bot/move.csv
Turn of: white
Succesful move
g1h3
8 | R N B Q K B N R 
7 | P P P P P P P P 
6 | _ _ _ _ _ _ _ _ 
5 | _ _ _ _ _ _ _ _ 
4 | _ _ _ _ _ _ _ _ 
3 | _ _ _ _ _ _ _ N 
2 | P P P P P P P P 
1 | R N B Q K B _ R 
-------------------
  | A B C D E F G H 

Turn of: black
Succesful move
h7h6
8 | R N B Q K B N R 
7 | P P P P P P P _ 
6 | _ _ _ _ _ _ _ P 
5 | _ _ _ _ _ _ _ _ 
4 | _ _ _ _ _ _ _ _ 
3 | _ _ _ _ _ _ _ N 
2 | P P P P P P P P 
1 | R N B Q K B _ R 
-------------------
  | A B C D E F G H 

Turn of: white
Succesful move
b1c3
8 | R N B Q K B N R 
7 | P P P P P P P _ 
6 | _ _ _ _ _ _ _ P 
5 | _ _ _ _ _ _ _ _ 
4 | _ _ _ _ _ _ _ _ 
3 | _ _ N _ _ _ _ N 
2 | P P P P P P P P 
1 | R _ B Q K B _ R 
-------------------
  | A B C D E F G H 

Turn of: black
Succesful move
g7g6
8 | R N B Q K B N R 
7 | P P P P P P _ _ 
6 | _ _ _ _ _ _ P P 
5 | _ _ _ _ _ _ _ _ 
4 | _ _ _ _ _ _ _ _ 
3 | _ _ N _ _ _ _ N 
2 | P P P P P P P P 
1 | R _ B Q K B _ R 
-------------------
  | A B C D E F G H 

Turn of: white
Succesful move
g2g4
8 | R N B Q K B N R 
7 | P P P P P P _ _ 
6 | _ _ _ _ _ _ P P 
5 | _ _ _ _ _ _ _ _ 
4 | _ _ _ _ _ _ P _ 
3 | _ _ N _ _ _ _ N 
2 | P P P P P P _ P 
1 | R _ B Q K B _ R 
-------------------
  | A B C D E F G H 

Turn of: black
Succesful move
d7d6
8 | R N B Q K B N R 
7 | P P P _ P P _ _ 
6 | _ _ _ P _ _ P P 
5 | _ _ _ _ _ _ _ _ 
4 | _ _ _ _ _ _ P _ 
3 | _ _ N _ _ _ _ N 
2 | P P P P P P _ P 
1 | R _ B Q K B _ R 
-------------------
  | A B C D E F G H 

Turn of: white
Succesful move
b2b4
8 | R N B Q K B N R 
7 | P P P _ P P _ _ 
6 | _ _ _ P _ _ P P 
5 | _ _ _ _ _ _ _ _ 
4 | _ P _ _ _ _ P _ 
3 | _ _ N _ _ _ _ N 
2 | P _ P P P P _ P 
1 | R _ B Q K B _ R 
-------------------
  | A B C D E F G H 

Turn of: black
Succesful move
c8g4
8 | R N _ Q K B N R 
7 | P P P _ P P _ _ 
6 | _ _ _ P _ _ P P 
5 | _ _ _ _ _ _ _ _ 
4 | _ P _ _ _ _ B _ 
3 | _ _ N _ _ _ _ N 
2 | P _ P P P P _ P 
1 | R _ B Q K B _ R 
-------------------
  | A B C D E F G H 

Turn of: white
Succesful move
a2a4
8 | R N _ Q K B N R 
7 | P P P _ P P _ _ 
6 | _ _ _ P _ _ P P 
5 | _ _ _ _ _ _ _ _ 
4 | P P _ _ _ _ B _ 
3 | _ _ N _ _ _ _ N 
2 | _ _ P P P P _ P 
1 | R _ B Q K B _ R 
-------------------
  | A B C D E F G H 

Turn of: black
Succesful move
f8g7
8 | R N _ Q K _ N R 
7 | P P P _ P P B _ 
6 | _ _ _ P _ _ P P 
5 | _ _ _ _ _ _ _ _ 
4 | P P _ _ _ _ B _ 
3 | _ _ N _ _ _ _ N 
2 | _ _ P P P P _ P 
1 | R _ B Q K B _ R 
-------------------
  | A B C D E F G H 

We are playing as White
Move history:
g1h3
h7h6
b1c3
g7g6
g2g4
d7d6
b2b4
c8g4
a2a4
f8g7
8 | R N _ Q K _ N R 
7 | P P P _ P P B _ 
6 | _ _ _ P _ _ P P 
5 | _ _ _ _ _ _ _ _ 
4 | P P _ _ _ _ B _ 
3 | _ _ N _ _ _ _ N 
2 | _ _ P P P P _ P 
1 | R _ B Q K B _ R 
-------------------
  | A B C D E F G H 

It is white's turn to play.
AI's move: f2f3
Move written: f2f3
[32;1m[Game] [0mPlayer's error code: 0
[32;1m[Game] [0mChecking move validity...
[32;1m[Board] [0mInitializing board...
[32;1m[Board] [0mLoading history file `championship/lizzie-iii-chess-bot/history.csv`...
[32;1m[Board] [0mLoaded 10 move(s).
[32;1m[Board] [0mLoading move file `championship/lizzie-iii-chess-bot/move.csv`...
[32;1m[Board] [0mWhite player is playing f2 to f3.
[32;1m[Board] [0m
[32;1m[Board] [0m    a b c d e f g h 
[32;1m[Board] [0m  -------------------
[32;1m[Board] [0m8 ||[30;1mr[0m|[30;1mk[0m|[7;1m [0m|[30;1mQ[0m|[30;1mK[0m| |[30;1mk[0m|[30;1mr[0m|| 8
[32;1m[Board] [0m  -------------------
[32;1m[Board] [0m7 ||[30;1mp[0m|[30;1mp[0m|[30;1mp[0m|[7;1m [0m|[30;1mp[0m|[30;1mp[0m|[30;1mb[0m|[7;1m [0m|| 7
[32;1m[Board] [0m  -------------------
[32;1m[Board] [0m6 ||[7;1m [0m| |[7;1m [0m|[30;1mp[0m|[7;1m [0m| |[30;1mp[0m|[30;1mp[0m|| 6
[32;1m[Board] [0m  -------------------
[32;1m[Board] [0m5 || |[7;1m [0m| |[7;1m [0m| |[7;1m [0m| |[7;1m [0m|| 5
[32;1m[Board] [0m  -------------------
[32;1m[Board] [0m4 ||[0;1mp[0m|[0;1mp[0m|[7;1m [0m| |[7;1m [0m| |[30;1mb[0m| || 4
[32;1m[Board] [0m  -------------------
[32;1m[Board] [0m3 || |[7;1m [0m|[0;1mk[0m|[7;1m [0m| |[0;1mp[0m| |[0;1mk[0m|| 3
[32;1m[Board] [0m  -------------------
[32;1m[Board] [0m2 ||[7;1m [0m| |[0;1mp[0m|[0;1mp[0m|[0;1mp[0m| |[7;1m [0m|[0;1mp[0m|| 2
[32;1m[Board] [0m  -------------------
[32;1m[Board] [0m1 ||[0;1mr[0m|[7;1m [0m|[0;1mb[0m|[0;1mQ[0m|[0;1mK[0m|[0;1mb[0m| |[0;1mr[0m|| 1
[32;1m[Board] [0m  -------------------
[32;1m[Board] [0m    a b c d e f g h
[32;1m[Board] [0m
[32;1m[Referee] [0mThis is the turn of the Black player...
reading moves... Captured wp!
done, got turn = 0.
finding legal moves... done, got 34 moves.
finding best one... done, displaying original position and new position:

original board:
|♜|♞| |♛|♚| |♞|♜|
|♟|♟|♟| |♟|♟|♝| |
| | | |♟| | |♟|♟|
| | | | | | | | |
|♙|♙| | | | |♝| |
| | |♘| | |♙| |♘|
| | |♙|♙|♙| | |♙|
|♖| |♗|♕|♔|♗| |♖|

new board:
|♜|♞| |♛|♚| |♞|♜|
|♟|♟|♟| |♟|♟| | |
| | | |♟| | |♟|♟|
| | | | | | | | |
|♙|♙| | | | |♝| |
| | |♝| | |♙| |♘|
| | |♙|♙|♙| | |♙|
|♖| |♗|♕|♔|♗| |♖|

creating move string... done. g7c3
creating output file... done.
[32;1m[Game] [0mPlayer's error code: 0
[32;1m[Game] [0mChecking move validity...
[32;1m[Board] [0mInitializing board...
[32;1m[Board] [0mLoading history file `championship/lizzie-iii-chess-bot/history.csv`...
[32;1m[Board] [0mLoaded 11 move(s).
[32;1m[Board] [0mLoading move file `championship/lizzie-iii-chess-bot/move.csv`...
[32;1m[Board] [0mBlack player is playing g7 to c3.
[32;1m[Board] [0m[5;1mBlack Bishop is taking White Knight.[0m
[32;1m[Board] [0m
[32;1m[Board] [0m    a b c d e f g h 
[32;1m[Board] [0m  -------------------
[32;1m[Board] [0m8 ||[30;1mr[0m|[30;1mk[0m|[7;1m [0m|[30;1mQ[0m|[30;1mK[0m| |[30;1mk[0m|[30;1mr[0m|| 8
[32;1m[Board] [0m  -------------------
[32;1m[Board] [0m7 ||[30;1mp[0m|[30;1mp[0m|[30;1mp[0m|[7;1m [0m|[30;1mp[0m|[30;1mp[0m| |[7;1m [0m|| 7
[32;1m[Board] [0m  -------------------
[32;1m[Board] [0m6 ||[7;1m [0m| |[7;1m [0m|[30;1mp[0m|[7;1m [0m| |[30;1mp[0m|[30;1mp[0m|| 6
[32;1m[Board] [0m  -------------------
[32;1m[Board] [0m5 || |[7;1m [0m| |[7;1m [0m| |[7;1m [0m| |[7;1m [0m|| 5
[32;1m[Board] [0m  -------------------
[32;1m[Board] [0m4 ||[0;1mp[0m|[0;1mp[0m|[7;1m [0m| |[7;1m [0m| |[30;1mb[0m| || 4
[32;1m[Board] [0m  -------------------
[32;1m[Board] [0m3 || |[7;1m [0m|[30;1mb[0m|[7;1m [0m| |[0;1mp[0m| |[0;1mk[0m|| 3
[32;1m[Board] [0m  -------------------
[32;1m[Board] [0m2 ||[7;1m [0m| |[0;1mp[0m|[0;1mp[0m|[0;1mp[0m| |[7;1m [0m|[0;1mp[0m|| 2
[32;1m[Board] [0m  -------------------
[32;1m[Board] [0m1 ||[0;1mr[0m|[7;1m [0m|[0;1mb[0m|[0;1mQ[0m|[0;1mK[0m|[0;1mb[0m| |[0;1mr[0m|| 1
[32;1m[Board] [0m  -------------------
[32;1m[Board] [0m    a b c d e f g h
[32;1m[Board] [0m
[32;1m[Referee] [0mThis is the turn of the White player...
Input file: championship/lizzie-iii-chess-bot/history.csv
Output file: championship/lizzie-iii-chess-bot/move.csv
Turn of: white
Succesful move
g1h3
8 | R N B Q K B N R 
7 | P P P P P P P P 
6 | _ _ _ _ _ _ _ _ 
5 | _ _ _ _ _ _ _ _ 
4 | _ _ _ _ _ _ _ _ 
3 | _ _ _ _ _ _ _ N 
2 | P P P P P P P P 
1 | R N B Q K B _ R 
-------------------
  | A B C D E F G H 

Turn of: black
Succesful move
h7h6
8 | R N B Q K B N R 
7 | P P P P P P P _ 
6 | _ _ _ _ _ _ _ P 
5 | _ _ _ _ _ _ _ _ 
4 | _ _ _ _ _ _ _ _ 
3 | _ _ _ _ _ _ _ N 
2 | P P P P P P P P 
1 | R N B Q K B _ R 
-------------------
  | A B C D E F G H 

Turn of: white
Succesful move
b1c3
8 | R N B Q K B N R 
7 | P P P P P P P _ 
6 | _ _ _ _ _ _ _ P 
5 | _ _ _ _ _ _ _ _ 
4 | _ _ _ _ _ _ _ _ 
3 | _ _ N _ _ _ _ N 
2 | P P P P P P P P 
1 | R _ B Q K B _ R 
-------------------
  | A B C D E F G H 

Turn of: black
Succesful move
g7g6
8 | R N B Q K B N R 
7 | P P P P P P _ _ 
6 | _ _ _ _ _ _ P P 
5 | _ _ _ _ _ _ _ _ 
4 | _ _ _ _ _ _ _ _ 
3 | _ _ N _ _ _ _ N 
2 | P P P P P P P P 
1 | R _ B Q K B _ R 
-------------------
  | A B C D E F G H 

Turn of: white
Succesful move
g2g4
8 | R N B Q K B N R 
7 | P P P P P P _ _ 
6 | _ _ _ _ _ _ P P 
5 | _ _ _ _ _ _ _ _ 
4 | _ _ _ _ _ _ P _ 
3 | _ _ N _ _ _ _ N 
2 | P P P P P P _ P 
1 | R _ B Q K B _ R 
-------------------
  | A B C D E F G H 

Turn of: black
Succesful move
d7d6
8 | R N B Q K B N R 
7 | P P P _ P P _ _ 
6 | _ _ _ P _ _ P P 
5 | _ _ _ _ _ _ _ _ 
4 | _ _ _ _ _ _ P _ 
3 | _ _ N _ _ _ _ N 
2 | P P P P P P _ P 
1 | R _ B Q K B _ R 
-------------------
  | A B C D E F G H 

Turn of: white
Succesful move
b2b4
8 | R N B Q K B N R 
7 | P P P _ P P _ _ 
6 | _ _ _ P _ _ P P 
5 | _ _ _ _ _ _ _ _ 
4 | _ P _ _ _ _ P _ 
3 | _ _ N _ _ _ _ N 
2 | P _ P P P P _ P 
1 | R _ B Q K B _ R 
-------------------
  | A B C D E F G H 

Turn of: black
Succesful move
c8g4
8 | R N _ Q K B N R 
7 | P P P _ P P _ _ 
6 | _ _ _ P _ _ P P 
5 | _ _ _ _ _ _ _ _ 
4 | _ P _ _ _ _ B _ 
3 | _ _ N _ _ _ _ N 
2 | P _ P P P P _ P 
1 | R _ B Q K B _ R 
-------------------
  | A B C D E F G H 

Turn of: white
Succesful move
a2a4
8 | R N _ Q K B N R 
7 | P P P _ P P _ _ 
6 | _ _ _ P _ _ P P 
5 | _ _ _ _ _ _ _ _ 
4 | P P _ _ _ _ B _ 
3 | _ _ N _ _ _ _ N 
2 | _ _ P P P P _ P 
1 | R _ B Q K B _ R 
-------------------
  | A B C D E F G H 

Turn of: black
Succesful move
f8g7
8 | R N _ Q K _ N R 
7 | P P P _ P P B _ 
6 | _ _ _ P _ _ P P 
5 | _ _ _ _ _ _ _ _ 
4 | P P _ _ _ _ B _ 
3 | _ _ N _ _ _ _ N 
2 | _ _ P P P P _ P 
1 | R _ B Q K B _ R 
-------------------
  | A B C D E F G H 

Turn of: white
Succesful move
f2f3
8 | R N _ Q K _ N R 
7 | P P P _ P P B _ 
6 | _ _ _ P _ _ P P 
5 | _ _ _ _ _ _ _ _ 
4 | P P _ _ _ _ B _ 
3 | _ _ N _ _ P _ N 
2 | _ _ P P P _ _ P 
1 | R _ B Q K B _ R 
-------------------
  | A B C D E F G H 

Turn of: black
Succesful move
g7c3
8 | R N _ Q K _ N R 
7 | P P P _ P P _ _ 
6 | _ _ _ P _ _ P P 
5 | _ _ _ _ _ _ _ _ 
4 | P P _ _ _ _ B _ 
3 | _ _ B _ _ P _ N 
2 | _ _ P P P _ _ P 
1 | R _ B Q K B _ R 
-------------------
  | A B C D E F G H 

We are playing as White
Move history:
g1h3
h7h6
b1c3
g7g6
g2g4
d7d6
b2b4
c8g4
a2a4
f8g7
f2f3
g7c3
8 | R N _ Q K _ N R 
7 | P P P _ P P _ _ 
6 | _ _ _ P _ _ P P 
5 | _ _ _ _ _ _ _ _ 
4 | P P _ _ _ _ B _ 
3 | _ _ B _ _ P _ N 
2 | _ _ P P P _ _ P 
1 | R _ B Q K B _ R 
-------------------
  | A B C D E F G H 

It is white's turn to play.
AI's move: c1b2
Move written: c1b2
[32;1m[Game] [0mPlayer's error code: 0
[32;1m[Game] [0mChecking move validity...
[32;1m[Board] [0mInitializing board...
[32;1m[Board] [0mLoading history file `championship/lizzie-iii-chess-bot/history.csv`...
[32;1m[Board] [0mLoaded 12 move(s).
[32;1m[Board] [0mLoading move file `championship/lizzie-iii-chess-bot/move.csv`...
[32;1m[Board] [0mWhite player is playing c1 to b2.
[32;1m[Board] [0m
[32;1m[Board] [0m    a b c d e f g h 
[32;1m[Board] [0m  -------------------
[32;1m[Board] [0m8 ||[30;1mr[0m|[30;1mk[0m|[7;1m [0m|[30;1mQ[0m|[30;1mK[0m| |[30;1mk[0m|[30;1mr[0m|| 8
[32;1m[Board] [0m  -------------------
[32;1m[Board] [0m7 ||[30;1mp[0m|[30;1mp[0m|[30;1mp[0m|[7;1m [0m|[30;1mp[0m|[30;1mp[0m| |[7;1m [0m|| 7
[32;1m[Board] [0m  -------------------
[32;1m[Board] [0m6 ||[7;1m [0m| |[7;1m [0m|[30;1mp[0m|[7;1m [0m| |[30;1mp[0m|[30;1mp[0m|| 6
[32;1m[Board] [0m  -------------------
[32;1m[Board] [0m5 || |[7;1m [0m| |[7;1m [0m| |[7;1m [0m| |[7;1m [0m|| 5
[32;1m[Board] [0m  -------------------
[32;1m[Board] [0m4 ||[0;1mp[0m|[0;1mp[0m|[7;1m [0m| |[7;1m [0m| |[30;1mb[0m| || 4
[32;1m[Board] [0m  -------------------
[32;1m[Board] [0m3 || |[7;1m [0m|[30;1mb[0m|[7;1m [0m| |[0;1mp[0m| |[0;1mk[0m|| 3
[32;1m[Board] [0m  -------------------
[32;1m[Board] [0m2 ||[7;1m [0m|[0;1mb[0m|[0;1mp[0m|[0;1mp[0m|[0;1mp[0m| |[7;1m [0m|[0;1mp[0m|| 2
[32;1m[Board] [0m  -------------------
[32;1m[Board] [0m1 ||[0;1mr[0m|[7;1m [0m| |[0;1mQ[0m|[0;1mK[0m|[0;1mb[0m| |[0;1mr[0m|| 1
[32;1m[Board] [0m  -------------------
[32;1m[Board] [0m    a b c d e f g h
[32;1m[Board] [0m
[32;1m[Referee] [0mThis is the turn of the Black player...
reading moves... Captured wp!
Captured wN!
done, got turn = 0.
finding legal moves... done, got 36 moves.
finding best one... done, displaying original position and new position:

original board:
|♜|♞| |♛|♚| |♞|♜|
|♟|♟|♟| |♟|♟| | |
| | | |♟| | |♟|♟|
| | | | | | | | |
|♙|♙| | | | |♝| |
| | |♝| | |♙| |♘|
| |♗|♙|♙|♙| | |♙|
|♖| | |♕|♔|♗| |♖|

new board:
|♜|♞| |♛|♚| |♞|♜|
|♟|♟|♟| |♟|♟| | |
| | | |♟| | |♟|♟|
| | | | | | | | |
|♙|♙| | | | |♝| |
| | | | | |♙| |♘|
| |♝|♙|♙|♙| | |♙|
|♖| | |♕|♔|♗| |♖|

creating move string... done. c3b2
creating output file... done.
[32;1m[Game] [0mPlayer's error code: 0
[32;1m[Game] [0mChecking move validity...
[32;1m[Board] [0mInitializing board...
[32;1m[Board] [0mLoading history file `championship/lizzie-iii-chess-bot/history.csv`...
[32;1m[Board] [0mLoaded 13 move(s).
[32;1m[Board] [0mLoading move file `championship/lizzie-iii-chess-bot/move.csv`...
[32;1m[Board] [0mBlack player is playing c3 to b2.
[32;1m[Board] [0m[5;1mBlack Bishop is taking White Bishop.[0m
[32;1m[Board] [0m
[32;1m[Board] [0m    a b c d e f g h 
[32;1m[Board] [0m  -------------------
[32;1m[Board] [0m8 ||[30;1mr[0m|[30;1mk[0m|[7;1m [0m|[30;1mQ[0m|[30;1mK[0m| |[30;1mk[0m|[30;1mr[0m|| 8
[32;1m[Board] [0m  -------------------
[32;1m[Board] [0m7 ||[30;1mp[0m|[30;1mp[0m|[30;1mp[0m|[7;1m [0m|[30;1mp[0m|[30;1mp[0m| |[7;1m [0m|| 7
[32;1m[Board] [0m  -------------------
[32;1m[Board] [0m6 ||[7;1m [0m| |[7;1m [0m|[30;1mp[0m|[7;1m [0m| |[30;1mp[0m|[30;1mp[0m|| 6
[32;1m[Board] [0m  -------------------
[32;1m[Board] [0m5 || |[7;1m [0m| |[7;1m [0m| |[7;1m [0m| |[7;1m [0m|| 5
[32;1m[Board] [0m  -------------------
[32;1m[Board] [0m4 ||[0;1mp[0m|[0;1mp[0m|[7;1m [0m| |[7;1m [0m| |[30;1mb[0m| || 4
[32;1m[Board] [0m  -------------------
[32;1m[Board] [0m3 || |[7;1m [0m| |[7;1m [0m| |[0;1mp[0m| |[0;1mk[0m|| 3
[32;1m[Board] [0m  -------------------
[32;1m[Board] [0m2 ||[7;1m [0m|[30;1mb[0m|[0;1mp[0m|[0;1mp[0m|[0;1mp[0m| |[7;1m [0m|[0;1mp[0m|| 2
[32;1m[Board] [0m  -------------------
[32;1m[Board] [0m1 ||[0;1mr[0m|[7;1m [0m| |[0;1mQ[0m|[0;1mK[0m|[0;1mb[0m| |[0;1mr[0m|| 1
[32;1m[Board] [0m  -------------------
[32;1m[Board] [0m    a b c d e f g h
[32;1m[Board] [0m
[32;1m[Referee] [0mThis is the turn of the White player...
Input file: championship/lizzie-iii-chess-bot/history.csv
Output file: championship/lizzie-iii-chess-bot/move.csv
Turn of: white
Succesful move
g1h3
8 | R N B Q K B N R 
7 | P P P P P P P P 
6 | _ _ _ _ _ _ _ _ 
5 | _ _ _ _ _ _ _ _ 
4 | _ _ _ _ _ _ _ _ 
3 | _ _ _ _ _ _ _ N 
2 | P P P P P P P P 
1 | R N B Q K B _ R 
-------------------
  | A B C D E F G H 

Turn of: black
Succesful move
h7h6
8 | R N B Q K B N R 
7 | P P P P P P P _ 
6 | _ _ _ _ _ _ _ P 
5 | _ _ _ _ _ _ _ _ 
4 | _ _ _ _ _ _ _ _ 
3 | _ _ _ _ _ _ _ N 
2 | P P P P P P P P 
1 | R N B Q K B _ R 
-------------------
  | A B C D E F G H 

Turn of: white
Succesful move
b1c3
8 | R N B Q K B N R 
7 | P P P P P P P _ 
6 | _ _ _ _ _ _ _ P 
5 | _ _ _ _ _ _ _ _ 
4 | _ _ _ _ _ _ _ _ 
3 | _ _ N _ _ _ _ N 
2 | P P P P P P P P 
1 | R _ B Q K B _ R 
-------------------
  | A B C D E F G H 

Turn of: black
Succesful move
g7g6
8 | R N B Q K B N R 
7 | P P P P P P _ _ 
6 | _ _ _ _ _ _ P P 
5 | _ _ _ _ _ _ _ _ 
4 | _ _ _ _ _ _ _ _ 
3 | _ _ N _ _ _ _ N 
2 | P P P P P P P P 
1 | R _ B Q K B _ R 
-------------------
  | A B C D E F G H 

Turn of: white
Succesful move
g2g4
8 | R N B Q K B N R 
7 | P P P P P P _ _ 
6 | _ _ _ _ _ _ P P 
5 | _ _ _ _ _ _ _ _ 
4 | _ _ _ _ _ _ P _ 
3 | _ _ N _ _ _ _ N 
2 | P P P P P P _ P 
1 | R _ B Q K B _ R 
-------------------
  | A B C D E F G H 

Turn of: black
Succesful move
d7d6
8 | R N B Q K B N R 
7 | P P P _ P P _ _ 
6 | _ _ _ P _ _ P P 
5 | _ _ _ _ _ _ _ _ 
4 | _ _ _ _ _ _ P _ 
3 | _ _ N _ _ _ _ N 
2 | P P P P P P _ P 
1 | R _ B Q K B _ R 
-------------------
  | A B C D E F G H 

Turn of: white
Succesful move
b2b4
8 | R N B Q K B N R 
7 | P P P _ P P _ _ 
6 | _ _ _ P _ _ P P 
5 | _ _ _ _ _ _ _ _ 
4 | _ P _ _ _ _ P _ 
3 | _ _ N _ _ _ _ N 
2 | P _ P P P P _ P 
1 | R _ B Q K B _ R 
-------------------
  | A B C D E F G H 

Turn of: black
Succesful move
c8g4
8 | R N _ Q K B N R 
7 | P P P _ P P _ _ 
6 | _ _ _ P _ _ P P 
5 | _ _ _ _ _ _ _ _ 
4 | _ P _ _ _ _ B _ 
3 | _ _ N _ _ _ _ N 
2 | P _ P P P P _ P 
1 | R _ B Q K B _ R 
-------------------
  | A B C D E F G H 

Turn of: white
Succesful move
a2a4
8 | R N _ Q K B N R 
7 | P P P _ P P _ _ 
6 | _ _ _ P _ _ P P 
5 | _ _ _ _ _ _ _ _ 
4 | P P _ _ _ _ B _ 
3 | _ _ N _ _ _ _ N 
2 | _ _ P P P P _ P 
1 | R _ B Q K B _ R 
-------------------
  | A B C D E F G H 

Turn of: black
Succesful move
f8g7
8 | R N _ Q K _ N R 
7 | P P P _ P P B _ 
6 | _ _ _ P _ _ P P 
5 | _ _ _ _ _ _ _ _ 
4 | P P _ _ _ _ B _ 
3 | _ _ N _ _ _ _ N 
2 | _ _ P P P P _ P 
1 | R _ B Q K B _ R 
-------------------
  | A B C D E F G H 

Turn of: white
Succesful move
f2f3
8 | R N _ Q K _ N R 
7 | P P P _ P P B _ 
6 | _ _ _ P _ _ P P 
5 | _ _ _ _ _ _ _ _ 
4 | P P _ _ _ _ B _ 
3 | _ _ N _ _ P _ N 
2 | _ _ P P P _ _ P 
1 | R _ B Q K B _ R 
-------------------
  | A B C D E F G H 

Turn of: black
Succesful move
g7c3
8 | R N _ Q K _ N R 
7 | P P P _ P P _ _ 
6 | _ _ _ P _ _ P P 
5 | _ _ _ _ _ _ _ _ 
4 | P P _ _ _ _ B _ 
3 | _ _ B _ _ P _ N 
2 | _ _ P P P _ _ P 
1 | R _ B Q K B _ R 
-------------------
  | A B C D E F G H 

Turn of: white
Succesful move
c1b2
8 | R N _ Q K _ N R 
7 | P P P _ P P _ _ 
6 | _ _ _ P _ _ P P 
5 | _ _ _ _ _ _ _ _ 
4 | P P _ _ _ _ B _ 
3 | _ _ B _ _ P _ N 
2 | _ B P P P _ _ P 
1 | R _ _ Q K B _ R 
-------------------
  | A B C D E F G H 

Turn of: black
Succesful move
c3b2
8 | R N _ Q K _ N R 
7 | P P P _ P P _ _ 
6 | _ _ _ P _ _ P P 
5 | _ _ _ _ _ _ _ _ 
4 | P P _ _ _ _ B _ 
3 | _ _ _ _ _ P _ N 
2 | _ B P P P _ _ P 
1 | R _ _ Q K B _ R 
-------------------
  | A B C D E F G H 

We are playing as White
Move history:
g1h3
h7h6
b1c3
g7g6
g2g4
d7d6
b2b4
c8g4
a2a4
f8g7
f2f3
g7c3
c1b2
c3b2
8 | R N _ Q K _ N R 
7 | P P P _ P P _ _ 
6 | _ _ _ P _ _ P P 
5 | _ _ _ _ _ _ _ _ 
4 | P P _ _ _ _ B _ 
3 | _ _ _ _ _ P _ N 
2 | _ B P P P _ _ P 
1 | R _ _ Q K B _ R 
-------------------
  | A B C D E F G H 

It is white's turn to play.
AI's move: f3g4
Move written: f3g4
[32;1m[Game] [0mPlayer's error code: 0
[32;1m[Game] [0mChecking move validity...
[32;1m[Board] [0mInitializing board...
[32;1m[Board] [0mLoading history file `championship/lizzie-iii-chess-bot/history.csv`...
[32;1m[Board] [0mLoaded 14 move(s).
[32;1m[Board] [0mLoading move file `championship/lizzie-iii-chess-bot/move.csv`...
[32;1m[Board] [0mWhite player is playing f3 to g4.
[32;1m[Board] [0m[5;1mWhite Pawn is taking Black Bishop.[0m
[32;1m[Board] [0m
[32;1m[Board] [0m    a b c d e f g h 
[32;1m[Board] [0m  -------------------
[32;1m[Board] [0m8 ||[30;1mr[0m|[30;1mk[0m|[7;1m [0m|[30;1mQ[0m|[30;1mK[0m| |[30;1mk[0m|[30;1mr[0m|| 8
[32;1m[Board] [0m  -------------------
[32;1m[Board] [0m7 ||[30;1mp[0m|[30;1mp[0m|[30;1mp[0m|[7;1m [0m|[30;1mp[0m|[30;1mp[0m| |[7;1m [0m|| 7
[32;1m[Board] [0m  -------------------
[32;1m[Board] [0m6 ||[7;1m [0m| |[7;1m [0m|[30;1mp[0m|[7;1m [0m| |[30;1mp[0m|[30;1mp[0m|| 6
[32;1m[Board] [0m  -------------------
[32;1m[Board] [0m5 || |[7;1m [0m| |[7;1m [0m| |[7;1m [0m| |[7;1m [0m|| 5
[32;1m[Board] [0m  -------------------
[32;1m[Board] [0m4 ||[0;1mp[0m|[0;1mp[0m|[7;1m [0m| |[7;1m [0m| |[0;1mp[0m| || 4
[32;1m[Board] [0m  -------------------
[32;1m[Board] [0m3 || |[7;1m [0m| |[7;1m [0m| |[7;1m [0m| |[0;1mk[0m|| 3
[32;1m[Board] [0m  -------------------
[32;1m[Board] [0m2 ||[7;1m [0m|[30;1mb[0m|[0;1mp[0m|[0;1mp[0m|[0;1mp[0m| |[7;1m [0m|[0;1mp[0m|| 2
[32;1m[Board] [0m  -------------------
[32;1m[Board] [0m1 ||[0;1mr[0m|[7;1m [0m| |[0;1mQ[0m|[0;1mK[0m|[0;1mb[0m| |[0;1mr[0m|| 1
[32;1m[Board] [0m  -------------------
[32;1m[Board] [0m    a b c d e f g h
[32;1m[Board] [0m
[32;1m[Referee] [0mThis is the turn of the Black player...
reading moves... Captured wp!
Captured wN!
Captured wb!
Captured bb!
done, got turn = 0.
finding legal moves... done, got 30 moves.
finding best one... done, displaying original position and new position:

original board:
|♜|♞| |♛|♚| |♞|♜|
|♟|♟|♟| |♟|♟| | |
| | | |♟| | |♟|♟|
| | | | | | | | |
|♙|♙| | | | |♙| |
| | | | | | | |♘|
| |♝|♙|♙|♙| | |♙|
|♖| | |♕|♔|♗| |♖|

new board:
|♜|♞| |♛|♚| |♞|♜|
|♟|♟|♟| |♟| | | |
| | | |♟| |♟|♟|♟|
| | | | | | | | |
|♙|♙| | | | |♙| |
| | | | | | | |♘|
| |♝|♙|♙|♙| | |♙|
|♖| | |♕|♔|♗| |♖|

creating move string... done. f7f6
creating output file... done.
[32;1m[Game] [0mPlayer's error code: 0
[32;1m[Game] [0mChecking move validity...
[32;1m[Board] [0mInitializing board...
[32;1m[Board] [0mLoading history file `championship/lizzie-iii-chess-bot/history.csv`...
[32;1m[Board] [0mLoaded 15 move(s).
[32;1m[Board] [0mLoading move file `championship/lizzie-iii-chess-bot/move.csv`...
[32;1m[Board] [0mBlack player is playing f7 to f6.
[32;1m[Board] [0m
[32;1m[Board] [0m    a b c d e f g h 
[32;1m[Board] [0m  -------------------
[32;1m[Board] [0m8 ||[30;1mr[0m|[30;1mk[0m|[7;1m [0m|[30;1mQ[0m|[30;1mK[0m| |[30;1mk[0m|[30;1mr[0m|| 8
[32;1m[Board] [0m  -------------------
[32;1m[Board] [0m7 ||[30;1mp[0m|[30;1mp[0m|[30;1mp[0m|[7;1m [0m|[30;1mp[0m|[7;1m [0m| |[7;1m [0m|| 7
[32;1m[Board] [0m  -------------------
[32;1m[Board] [0m6 ||[7;1m [0m| |[7;1m [0m|[30;1mp[0m|[7;1m [0m|[30;1mp[0m|[30;1mp[0m|[30;1mp[0m|| 6
[32;1m[Board] [0m  -------------------
[32;1m[Board] [0m5 || |[7;1m [0m| |[7;1m [0m| |[7;1m [0m| |[7;1m [0m|| 5
[32;1m[Board] [0m  -------------------
[32;1m[Board] [0m4 ||[0;1mp[0m|[0;1mp[0m|[7;1m [0m| |[7;1m [0m| |[0;1mp[0m| || 4
[32;1m[Board] [0m  -------------------
[32;1m[Board] [0m3 || |[7;1m [0m| |[7;1m [0m| |[7;1m [0m| |[0;1mk[0m|| 3
[32;1m[Board] [0m  -------------------
[32;1m[Board] [0m2 ||[7;1m [0m|[30;1mb[0m|[0;1mp[0m|[0;1mp[0m|[0;1mp[0m| |[7;1m [0m|[0;1mp[0m|| 2
[32;1m[Board] [0m  -------------------
[32;1m[Board] [0m1 ||[0;1mr[0m|[7;1m [0m| |[0;1mQ[0m|[0;1mK[0m|[0;1mb[0m| |[0;1mr[0m|| 1
[32;1m[Board] [0m  -------------------
[32;1m[Board] [0m    a b c d e f g h
[32;1m[Board] [0m
[32;1m[Referee] [0mThis is the turn of the White player...
Input file: championship/lizzie-iii-chess-bot/history.csv
Output file: championship/lizzie-iii-chess-bot/move.csv
Turn of: white
Succesful move
g1h3
8 | R N B Q K B N R 
7 | P P P P P P P P 
6 | _ _ _ _ _ _ _ _ 
5 | _ _ _ _ _ _ _ _ 
4 | _ _ _ _ _ _ _ _ 
3 | _ _ _ _ _ _ _ N 
2 | P P P P P P P P 
1 | R N B Q K B _ R 
-------------------
  | A B C D E F G H 

Turn of: black
Succesful move
h7h6
8 | R N B Q K B N R 
7 | P P P P P P P _ 
6 | _ _ _ _ _ _ _ P 
5 | _ _ _ _ _ _ _ _ 
4 | _ _ _ _ _ _ _ _ 
3 | _ _ _ _ _ _ _ N 
2 | P P P P P P P P 
1 | R N B Q K B _ R 
-------------------
  | A B C D E F G H 

Turn of: white
Succesful move
b1c3
8 | R N B Q K B N R 
7 | P P P P P P P _ 
6 | _ _ _ _ _ _ _ P 
5 | _ _ _ _ _ _ _ _ 
4 | _ _ _ _ _ _ _ _ 
3 | _ _ N _ _ _ _ N 
2 | P P P P P P P P 
1 | R _ B Q K B _ R 
-------------------
  | A B C D E F G H 

Turn of: black
Succesful move
g7g6
8 | R N B Q K B N R 
7 | P P P P P P _ _ 
6 | _ _ _ _ _ _ P P 
5 | _ _ _ _ _ _ _ _ 
4 | _ _ _ _ _ _ _ _ 
3 | _ _ N _ _ _ _ N 
2 | P P P P P P P P 
1 | R _ B Q K B _ R 
-------------------
  | A B C D E F G H 

Turn of: white
Succesful move
g2g4
8 | R N B Q K B N R 
7 | P P P P P P _ _ 
6 | _ _ _ _ _ _ P P 
5 | _ _ _ _ _ _ _ _ 
4 | _ _ _ _ _ _ P _ 
3 | _ _ N _ _ _ _ N 
2 | P P P P P P _ P 
1 | R _ B Q K B _ R 
-------------------
  | A B C D E F G H 

Turn of: black
Succesful move
d7d6
8 | R N B Q K B N R 
7 | P P P _ P P _ _ 
6 | _ _ _ P _ _ P P 
5 | _ _ _ _ _ _ _ _ 
4 | _ _ _ _ _ _ P _ 
3 | _ _ N _ _ _ _ N 
2 | P P P P P P _ P 
1 | R _ B Q K B _ R 
-------------------
  | A B C D E F G H 

Turn of: white
Succesful move
b2b4
8 | R N B Q K B N R 
7 | P P P _ P P _ _ 
6 | _ _ _ P _ _ P P 
5 | _ _ _ _ _ _ _ _ 
4 | _ P _ _ _ _ P _ 
3 | _ _ N _ _ _ _ N 
2 | P _ P P P P _ P 
1 | R _ B Q K B _ R 
-------------------
  | A B C D E F G H 

Turn of: black
Succesful move
c8g4
8 | R N _ Q K B N R 
7 | P P P _ P P _ _ 
6 | _ _ _ P _ _ P P 
5 | _ _ _ _ _ _ _ _ 
4 | _ P _ _ _ _ B _ 
3 | _ _ N _ _ _ _ N 
2 | P _ P P P P _ P 
1 | R _ B Q K B _ R 
-------------------
  | A B C D E F G H 

Turn of: white
Succesful move
a2a4
8 | R N _ Q K B N R 
7 | P P P _ P P _ _ 
6 | _ _ _ P _ _ P P 
5 | _ _ _ _ _ _ _ _ 
4 | P P _ _ _ _ B _ 
3 | _ _ N _ _ _ _ N 
2 | _ _ P P P P _ P 
1 | R _ B Q K B _ R 
-------------------
  | A B C D E F G H 

Turn of: black
Succesful move
f8g7
8 | R N _ Q K _ N R 
7 | P P P _ P P B _ 
6 | _ _ _ P _ _ P P 
5 | _ _ _ _ _ _ _ _ 
4 | P P _ _ _ _ B _ 
3 | _ _ N _ _ _ _ N 
2 | _ _ P P P P _ P 
1 | R _ B Q K B _ R 
-------------------
  | A B C D E F G H 

Turn of: white
Succesful move
f2f3
8 | R N _ Q K _ N R 
7 | P P P _ P P B _ 
6 | _ _ _ P _ _ P P 
5 | _ _ _ _ _ _ _ _ 
4 | P P _ _ _ _ B _ 
3 | _ _ N _ _ P _ N 
2 | _ _ P P P _ _ P 
1 | R _ B Q K B _ R 
-------------------
  | A B C D E F G H 

Turn of: black
Succesful move
g7c3
8 | R N _ Q K _ N R 
7 | P P P _ P P _ _ 
6 | _ _ _ P _ _ P P 
5 | _ _ _ _ _ _ _ _ 
4 | P P _ _ _ _ B _ 
3 | _ _ B _ _ P _ N 
2 | _ _ P P P _ _ P 
1 | R _ B Q K B _ R 
-------------------
  | A B C D E F G H 

Turn of: white
Succesful move
c1b2
8 | R N _ Q K _ N R 
7 | P P P _ P P _ _ 
6 | _ _ _ P _ _ P P 
5 | _ _ _ _ _ _ _ _ 
4 | P P _ _ _ _ B _ 
3 | _ _ B _ _ P _ N 
2 | _ B P P P _ _ P 
1 | R _ _ Q K B _ R 
-------------------
  | A B C D E F G H 

Turn of: black
Succesful move
c3b2
8 | R N _ Q K _ N R 
7 | P P P _ P P _ _ 
6 | _ _ _ P _ _ P P 
5 | _ _ _ _ _ _ _ _ 
4 | P P _ _ _ _ B _ 
3 | _ _ _ _ _ P _ N 
2 | _ B P P P _ _ P 
1 | R _ _ Q K B _ R 
-------------------
  | A B C D E F G H 

Turn of: white
Succesful move
f3g4
8 | R N _ Q K _ N R 
7 | P P P _ P P _ _ 
6 | _ _ _ P _ _ P P 
5 | _ _ _ _ _ _ _ _ 
4 | P P _ _ _ _ P _ 
3 | _ _ _ _ _ _ _ N 
2 | _ B P P P _ _ P 
1 | R _ _ Q K B _ R 
-------------------
  | A B C D E F G H 

Turn of: black
Succesful move
f7f6
8 | R N _ Q K _ N R 
7 | P P P _ P _ _ _ 
6 | _ _ _ P _ P P P 
5 | _ _ _ _ _ _ _ _ 
4 | P P _ _ _ _ P _ 
3 | _ _ _ _ _ _ _ N 
2 | _ B P P P _ _ P 
1 | R _ _ Q K B _ R 
-------------------
  | A B C D E F G H 

We are playing as White
Move history:
g1h3
h7h6
b1c3
g7g6
g2g4
d7d6
b2b4
c8g4
a2a4
f8g7
f2f3
g7c3
c1b2
c3b2
f3g4
f7f6
8 | R N _ Q K _ N R 
7 | P P P _ P _ _ _ 
6 | _ _ _ P _ P P P 
5 | _ _ _ _ _ _ _ _ 
4 | P P _ _ _ _ P _ 
3 | _ _ _ _ _ _ _ N 
2 | _ B P P P _ _ P 
1 | R _ _ Q K B _ R 
-------------------
  | A B C D E F G H 

It is white's turn to play.
AI's move: h3f4
Move written: h3f4
[32;1m[Game] [0mPlayer's error code: 0
[32;1m[Game] [0mChecking move validity...
[32;1m[Board] [0mInitializing board...
[32;1m[Board] [0mLoading history file `championship/lizzie-iii-chess-bot/history.csv`...
[32;1m[Board] [0mLoaded 16 move(s).
[32;1m[Board] [0mLoading move file `championship/lizzie-iii-chess-bot/move.csv`...
[32;1m[Board] [0mWhite player is playing h3 to f4.
[32;1m[Board] [0m
[32;1m[Board] [0m    a b c d e f g h 
[32;1m[Board] [0m  -------------------
[32;1m[Board] [0m8 ||[30;1mr[0m|[30;1mk[0m|[7;1m [0m|[30;1mQ[0m|[30;1mK[0m| |[30;1mk[0m|[30;1mr[0m|| 8
[32;1m[Board] [0m  -------------------
[32;1m[Board] [0m7 ||[30;1mp[0m|[30;1mp[0m|[30;1mp[0m|[7;1m [0m|[30;1mp[0m|[7;1m [0m| |[7;1m [0m|| 7
[32;1m[Board] [0m  -------------------
[32;1m[Board] [0m6 ||[7;1m [0m| |[7;1m [0m|[30;1mp[0m|[7;1m [0m|[30;1mp[0m|[30;1mp[0m|[30;1mp[0m|| 6
[32;1m[Board] [0m  -------------------
[32;1m[Board] [0m5 || |[7;1m [0m| |[7;1m [0m| |[7;1m [0m| |[7;1m [0m|| 5
[32;1m[Board] [0m  -------------------
[32;1m[Board] [0m4 ||[0;1mp[0m|[0;1mp[0m|[7;1m [0m| |[7;1m [0m|[0;1mk[0m|[0;1mp[0m| || 4
[32;1m[Board] [0m  -------------------
[32;1m[Board] [0m3 || |[7;1m [0m| |[7;1m [0m| |[7;1m [0m| |[7;1m [0m|| 3
[32;1m[Board] [0m  -------------------
[32;1m[Board] [0m2 ||[7;1m [0m|[30;1mb[0m|[0;1mp[0m|[0;1mp[0m|[0;1mp[0m| |[7;1m [0m|[0;1mp[0m|| 2
[32;1m[Board] [0m  -------------------
[32;1m[Board] [0m1 ||[0;1mr[0m|[7;1m [0m| |[0;1mQ[0m|[0;1mK[0m|[0;1mb[0m| |[0;1mr[0m|| 1
[32;1m[Board] [0m  -------------------
[32;1m[Board] [0m    a b c d e f g h
[32;1m[Board] [0m
[32;1m[Referee] [0mThis is the turn of the Black player...
reading moves... Captured wp!
Captured wN!
Captured wb!
Captured bb!
done, got turn = 0.
finding legal moves... done, got 27 moves.
finding best one... done, displaying original position and new position:

original board:
|♜|♞| |♛|♚| |♞|♜|
|♟|♟|♟| |♟| | | |
| | | |♟| |♟|♟|♟|
| | | | | | | | |
|♙|♙| | | |♘|♙| |
| | | | | | | | |
| |♝|♙|♙|♙| | |♙|
|♖| | |♕|♔|♗| |♖|

new board:
|♜|♞| |♛|♚| |♞|♜|
|♟|♟|♟| |♟| | | |
| | | |♟| |♟| |♟|
| | | | | | |♟| |
|♙|♙| | | |♘|♙| |
| | | | | | | | |
| |♝|♙|♙|♙| | |♙|
|♖| | |♕|♔|♗| |♖|

creating move string... done. g6g5
creating output file... done.
[32;1m[Game] [0mPlayer's error code: 0
[32;1m[Game] [0mChecking move validity...
[32;1m[Board] [0mInitializing board...
[32;1m[Board] [0mLoading history file `championship/lizzie-iii-chess-bot/history.csv`...
[32;1m[Board] [0mLoaded 17 move(s).
[32;1m[Board] [0mLoading move file `championship/lizzie-iii-chess-bot/move.csv`...
[32;1m[Board] [0mBlack player is playing g6 to g5.
[32;1m[Board] [0m
[32;1m[Board] [0m    a b c d e f g h 
[32;1m[Board] [0m  -------------------
[32;1m[Board] [0m8 ||[30;1mr[0m|[30;1mk[0m|[7;1m [0m|[30;1mQ[0m|[30;1mK[0m| |[30;1mk[0m|[30;1mr[0m|| 8
[32;1m[Board] [0m  -------------------
[32;1m[Board] [0m7 ||[30;1mp[0m|[30;1mp[0m|[30;1mp[0m|[7;1m [0m|[30;1mp[0m|[7;1m [0m| |[7;1m [0m|| 7
[32;1m[Board] [0m  -------------------
[32;1m[Board] [0m6 ||[7;1m [0m| |[7;1m [0m|[30;1mp[0m|[7;1m [0m|[30;1mp[0m|[7;1m [0m|[30;1mp[0m|| 6
[32;1m[Board] [0m  -------------------
[32;1m[Board] [0m5 || |[7;1m [0m| |[7;1m [0m| |[7;1m [0m|[30;1mp[0m|[7;1m [0m|| 5
[32;1m[Board] [0m  -------------------
[32;1m[Board] [0m4 ||[0;1mp[0m|[0;1mp[0m|[7;1m [0m| |[7;1m [0m|[0;1mk[0m|[0;1mp[0m| || 4
[32;1m[Board] [0m  -------------------
[32;1m[Board] [0m3 || |[7;1m [0m| |[7;1m [0m| |[7;1m [0m| |[7;1m [0m|| 3
[32;1m[Board] [0m  -------------------
[32;1m[Board] [0m2 ||[7;1m [0m|[30;1mb[0m|[0;1mp[0m|[0;1mp[0m|[0;1mp[0m| |[7;1m [0m|[0;1mp[0m|| 2
[32;1m[Board] [0m  -------------------
[32;1m[Board] [0m1 ||[0;1mr[0m|[7;1m [0m| |[0;1mQ[0m|[0;1mK[0m|[0;1mb[0m| |[0;1mr[0m|| 1
[32;1m[Board] [0m  -------------------
[32;1m[Board] [0m    a b c d e f g h
[32;1m[Board] [0m
[32;1m[Referee] [0mThis is the turn of the White player...
Input file: championship/lizzie-iii-chess-bot/history.csv
Output file: championship/lizzie-iii-chess-bot/move.csv
Turn of: white
Succesful move
g1h3
8 | R N B Q K B N R 
7 | P P P P P P P P 
6 | _ _ _ _ _ _ _ _ 
5 | _ _ _ _ _ _ _ _ 
4 | _ _ _ _ _ _ _ _ 
3 | _ _ _ _ _ _ _ N 
2 | P P P P P P P P 
1 | R N B Q K B _ R 
-------------------
  | A B C D E F G H 

Turn of: black
Succesful move
h7h6
8 | R N B Q K B N R 
7 | P P P P P P P _ 
6 | _ _ _ _ _ _ _ P 
5 | _ _ _ _ _ _ _ _ 
4 | _ _ _ _ _ _ _ _ 
3 | _ _ _ _ _ _ _ N 
2 | P P P P P P P P 
1 | R N B Q K B _ R 
-------------------
  | A B C D E F G H 

Turn of: white
Succesful move
b1c3
8 | R N B Q K B N R 
7 | P P P P P P P _ 
6 | _ _ _ _ _ _ _ P 
5 | _ _ _ _ _ _ _ _ 
4 | _ _ _ _ _ _ _ _ 
3 | _ _ N _ _ _ _ N 
2 | P P P P P P P P 
1 | R _ B Q K B _ R 
-------------------
  | A B C D E F G H 

Turn of: black
Succesful move
g7g6
8 | R N B Q K B N R 
7 | P P P P P P _ _ 
6 | _ _ _ _ _ _ P P 
5 | _ _ _ _ _ _ _ _ 
4 | _ _ _ _ _ _ _ _ 
3 | _ _ N _ _ _ _ N 
2 | P P P P P P P P 
1 | R _ B Q K B _ R 
-------------------
  | A B C D E F G H 

Turn of: white
Succesful move
g2g4
8 | R N B Q K B N R 
7 | P P P P P P _ _ 
6 | _ _ _ _ _ _ P P 
5 | _ _ _ _ _ _ _ _ 
4 | _ _ _ _ _ _ P _ 
3 | _ _ N _ _ _ _ N 
2 | P P P P P P _ P 
1 | R _ B Q K B _ R 
-------------------
  | A B C D E F G H 

Turn of: black
Succesful move
d7d6
8 | R N B Q K B N R 
7 | P P P _ P P _ _ 
6 | _ _ _ P _ _ P P 
5 | _ _ _ _ _ _ _ _ 
4 | _ _ _ _ _ _ P _ 
3 | _ _ N _ _ _ _ N 
2 | P P P P P P _ P 
1 | R _ B Q K B _ R 
-------------------
  | A B C D E F G H 

Turn of: white
Succesful move
b2b4
8 | R N B Q K B N R 
7 | P P P _ P P _ _ 
6 | _ _ _ P _ _ P P 
5 | _ _ _ _ _ _ _ _ 
4 | _ P _ _ _ _ P _ 
3 | _ _ N _ _ _ _ N 
2 | P _ P P P P _ P 
1 | R _ B Q K B _ R 
-------------------
  | A B C D E F G H 

Turn of: black
Succesful move
c8g4
8 | R N _ Q K B N R 
7 | P P P _ P P _ _ 
6 | _ _ _ P _ _ P P 
5 | _ _ _ _ _ _ _ _ 
4 | _ P _ _ _ _ B _ 
3 | _ _ N _ _ _ _ N 
2 | P _ P P P P _ P 
1 | R _ B Q K B _ R 
-------------------
  | A B C D E F G H 

Turn of: white
Succesful move
a2a4
8 | R N _ Q K B N R 
7 | P P P _ P P _ _ 
6 | _ _ _ P _ _ P P 
5 | _ _ _ _ _ _ _ _ 
4 | P P _ _ _ _ B _ 
3 | _ _ N _ _ _ _ N 
2 | _ _ P P P P _ P 
1 | R _ B Q K B _ R 
-------------------
  | A B C D E F G H 

Turn of: black
Succesful move
f8g7
8 | R N _ Q K _ N R 
7 | P P P _ P P B _ 
6 | _ _ _ P _ _ P P 
5 | _ _ _ _ _ _ _ _ 
4 | P P _ _ _ _ B _ 
3 | _ _ N _ _ _ _ N 
2 | _ _ P P P P _ P 
1 | R _ B Q K B _ R 
-------------------
  | A B C D E F G H 

Turn of: white
Succesful move
f2f3
8 | R N _ Q K _ N R 
7 | P P P _ P P B _ 
6 | _ _ _ P _ _ P P 
5 | _ _ _ _ _ _ _ _ 
4 | P P _ _ _ _ B _ 
3 | _ _ N _ _ P _ N 
2 | _ _ P P P _ _ P 
1 | R _ B Q K B _ R 
-------------------
  | A B C D E F G H 

Turn of: black
Succesful move
g7c3
8 | R N _ Q K _ N R 
7 | P P P _ P P _ _ 
6 | _ _ _ P _ _ P P 
5 | _ _ _ _ _ _ _ _ 
4 | P P _ _ _ _ B _ 
3 | _ _ B _ _ P _ N 
2 | _ _ P P P _ _ P 
1 | R _ B Q K B _ R 
-------------------
  | A B C D E F G H 

Turn of: white
Succesful move
c1b2
8 | R N _ Q K _ N R 
7 | P P P _ P P _ _ 
6 | _ _ _ P _ _ P P 
5 | _ _ _ _ _ _ _ _ 
4 | P P _ _ _ _ B _ 
3 | _ _ B _ _ P _ N 
2 | _ B P P P _ _ P 
1 | R _ _ Q K B _ R 
-------------------
  | A B C D E F G H 

Turn of: black
Succesful move
c3b2
8 | R N _ Q K _ N R 
7 | P P P _ P P _ _ 
6 | _ _ _ P _ _ P P 
5 | _ _ _ _ _ _ _ _ 
4 | P P _ _ _ _ B _ 
3 | _ _ _ _ _ P _ N 
2 | _ B P P P _ _ P 
1 | R _ _ Q K B _ R 
-------------------
  | A B C D E F G H 

Turn of: white
Succesful move
f3g4
8 | R N _ Q K _ N R 
7 | P P P _ P P _ _ 
6 | _ _ _ P _ _ P P 
5 | _ _ _ _ _ _ _ _ 
4 | P P _ _ _ _ P _ 
3 | _ _ _ _ _ _ _ N 
2 | _ B P P P _ _ P 
1 | R _ _ Q K B _ R 
-------------------
  | A B C D E F G H 

Turn of: black
Succesful move
f7f6
8 | R N _ Q K _ N R 
7 | P P P _ P _ _ _ 
6 | _ _ _ P _ P P P 
5 | _ _ _ _ _ _ _ _ 
4 | P P _ _ _ _ P _ 
3 | _ _ _ _ _ _ _ N 
2 | _ B P P P _ _ P 
1 | R _ _ Q K B _ R 
-------------------
  | A B C D E F G H 

Turn of: white
Succesful move
h3f4
8 | R N _ Q K _ N R 
7 | P P P _ P _ _ _ 
6 | _ _ _ P _ P P P 
5 | _ _ _ _ _ _ _ _ 
4 | P P _ _ _ N P _ 
3 | _ _ _ _ _ _ _ _ 
2 | _ B P P P _ _ P 
1 | R _ _ Q K B _ R 
-------------------
  | A B C D E F G H 

Turn of: black
Succesful move
g6g5
8 | R N _ Q K _ N R 
7 | P P P _ P _ _ _ 
6 | _ _ _ P _ P _ P 
5 | _ _ _ _ _ _ P _ 
4 | P P _ _ _ N P _ 
3 | _ _ _ _ _ _ _ _ 
2 | _ B P P P _ _ P 
1 | R _ _ Q K B _ R 
-------------------
  | A B C D E F G H 

We are playing as White
Move history:
g1h3
h7h6
b1c3
g7g6
g2g4
d7d6
b2b4
c8g4
a2a4
f8g7
f2f3
g7c3
c1b2
c3b2
f3g4
f7f6
h3f4
g6g5
8 | R N _ Q K _ N R 
7 | P P P _ P _ _ _ 
6 | _ _ _ P _ P _ P 
5 | _ _ _ _ _ _ P _ 
4 | P P _ _ _ N P _ 
3 | _ _ _ _ _ _ _ _ 
2 | _ B P P P _ _ P 
1 | R _ _ Q K B _ R 
-------------------
  | A B C D E F G H 

It is white's turn to play.
AI's move: f1h3
Move written: f1h3
[32;1m[Game] [0mPlayer's error code: 0
[32;1m[Game] [0mChecking move validity...
[32;1m[Board] [0mInitializing board...
[32;1m[Board] [0mLoading history file `championship/lizzie-iii-chess-bot/history.csv`...
[32;1m[Board] [0mLoaded 18 move(s).
[32;1m[Board] [0mLoading move file `championship/lizzie-iii-chess-bot/move.csv`...
[32;1m[Board] [0mWhite player is playing f1 to h3.
[32;1m[Board] [0m
[32;1m[Board] [0m    a b c d e f g h 
[32;1m[Board] [0m  -------------------
[32;1m[Board] [0m8 ||[30;1mr[0m|[30;1mk[0m|[7;1m [0m|[30;1mQ[0m|[30;1mK[0m| |[30;1mk[0m|[30;1mr[0m|| 8
[32;1m[Board] [0m  -------------------
[32;1m[Board] [0m7 ||[30;1mp[0m|[30;1mp[0m|[30;1mp[0m|[7;1m [0m|[30;1mp[0m|[7;1m [0m| |[7;1m [0m|| 7
[32;1m[Board] [0m  -------------------
[32;1m[Board] [0m6 ||[7;1m [0m| |[7;1m [0m|[30;1mp[0m|[7;1m [0m|[30;1mp[0m|[7;1m [0m|[30;1mp[0m|| 6
[32;1m[Board] [0m  -------------------
[32;1m[Board] [0m5 || |[7;1m [0m| |[7;1m [0m| |[7;1m [0m|[30;1mp[0m|[7;1m [0m|| 5
[32;1m[Board] [0m  -------------------
[32;1m[Board] [0m4 ||[0;1mp[0m|[0;1mp[0m|[7;1m [0m| |[7;1m [0m|[0;1mk[0m|[0;1mp[0m| || 4
[32;1m[Board] [0m  -------------------
[32;1m[Board] [0m3 || |[7;1m [0m| |[7;1m [0m| |[7;1m [0m| |[0;1mb[0m|| 3
[32;1m[Board] [0m  -------------------
[32;1m[Board] [0m2 ||[7;1m [0m|[30;1mb[0m|[0;1mp[0m|[0;1mp[0m|[0;1mp[0m| |[7;1m [0m|[0;1mp[0m|| 2
[32;1m[Board] [0m  -------------------
[32;1m[Board] [0m1 ||[0;1mr[0m|[7;1m [0m| |[0;1mQ[0m|[0;1mK[0m|[7;1m [0m| |[0;1mr[0m|| 1
[32;1m[Board] [0m  -------------------
[32;1m[Board] [0m    a b c d e f g h
[32;1m[Board] [0m
[32;1m[Referee] [0mThis is the turn of the Black player...
reading moves... Captured wp!
Captured wN!
Captured wb!
Captured bb!
done, got turn = 0.
finding legal moves... done, got 27 moves.
finding best one... done, displaying original position and new position:

original board:
|♜|♞| |♛|♚| |♞|♜|
|♟|♟|♟| |♟| | | |
| | | |♟| |♟| |♟|
| | | | | | |♟| |
|♙|♙| | | |♘|♙| |
| | | | | | | |♗|
| |♝|♙|♙|♙| | |♙|
|♖| | |♕|♔| | |♖|

new board:
|♜|♞| |♛|♚| |♞|♜|
|♟|♟|♟| |♟| | | |
| | | |♟| |♟| |♟|
| | | | | | | | |
|♙|♙| | | |♟|♙| |
| | | | | | | |♗|
| |♝|♙|♙|♙| | |♙|
|♖| | |♕|♔| | |♖|

creating move string... done. g5f4
creating output file... done.
[32;1m[Game] [0mPlayer's error code: 0
[32;1m[Game] [0mChecking move validity...
[32;1m[Board] [0mInitializing board...
[32;1m[Board] [0mLoading history file `championship/lizzie-iii-chess-bot/history.csv`...
[32;1m[Board] [0mLoaded 19 move(s).
[32;1m[Board] [0mLoading move file `championship/lizzie-iii-chess-bot/move.csv`...
[32;1m[Board] [0mBlack player is playing g5 to f4.
[32;1m[Board] [0m[5;1mBlack Pawn is taking White Knight.[0m
[32;1m[Board] [0m
[32;1m[Board] [0m    a b c d e f g h 
[32;1m[Board] [0m  -------------------
[32;1m[Board] [0m8 ||[30;1mr[0m|[30;1mk[0m|[7;1m [0m|[30;1mQ[0m|[30;1mK[0m| |[30;1mk[0m|[30;1mr[0m|| 8
[32;1m[Board] [0m  -------------------
[32;1m[Board] [0m7 ||[30;1mp[0m|[30;1mp[0m|[30;1mp[0m|[7;1m [0m|[30;1mp[0m|[7;1m [0m| |[7;1m [0m|| 7
[32;1m[Board] [0m  -------------------
[32;1m[Board] [0m6 ||[7;1m [0m| |[7;1m [0m|[30;1mp[0m|[7;1m [0m|[30;1mp[0m|[7;1m [0m|[30;1mp[0m|| 6
[32;1m[Board] [0m  -------------------
[32;1m[Board] [0m5 || |[7;1m [0m| |[7;1m [0m| |[7;1m [0m| |[7;1m [0m|| 5
[32;1m[Board] [0m  -------------------
[32;1m[Board] [0m4 ||[0;1mp[0m|[0;1mp[0m|[7;1m [0m| |[7;1m [0m|[30;1mp[0m|[0;1mp[0m| || 4
[32;1m[Board] [0m  -------------------
[32;1m[Board] [0m3 || |[7;1m [0m| |[7;1m [0m| |[7;1m [0m| |[0;1mb[0m|| 3
[32;1m[Board] [0m  -------------------
[32;1m[Board] [0m2 ||[7;1m [0m|[30;1mb[0m|[0;1mp[0m|[0;1mp[0m|[0;1mp[0m| |[7;1m [0m|[0;1mp[0m|| 2
[32;1m[Board] [0m  -------------------
[32;1m[Board] [0m1 ||[0;1mr[0m|[7;1m [0m| |[0;1mQ[0m|[0;1mK[0m|[7;1m [0m| |[0;1mr[0m|| 1
[32;1m[Board] [0m  -------------------
[32;1m[Board] [0m    a b c d e f g h
[32;1m[Board] [0m
[32;1m[Referee] [0mThis is the turn of the White player...
Input file: championship/lizzie-iii-chess-bot/history.csv
Output file: championship/lizzie-iii-chess-bot/move.csv
Turn of: white
Succesful move
g1h3
8 | R N B Q K B N R 
7 | P P P P P P P P 
6 | _ _ _ _ _ _ _ _ 
5 | _ _ _ _ _ _ _ _ 
4 | _ _ _ _ _ _ _ _ 
3 | _ _ _ _ _ _ _ N 
2 | P P P P P P P P 
1 | R N B Q K B _ R 
-------------------
  | A B C D E F G H 

Turn of: black
Succesful move
h7h6
8 | R N B Q K B N R 
7 | P P P P P P P _ 
6 | _ _ _ _ _ _ _ P 
5 | _ _ _ _ _ _ _ _ 
4 | _ _ _ _ _ _ _ _ 
3 | _ _ _ _ _ _ _ N 
2 | P P P P P P P P 
1 | R N B Q K B _ R 
-------------------
  | A B C D E F G H 

Turn of: white
Succesful move
b1c3
8 | R N B Q K B N R 
7 | P P P P P P P _ 
6 | _ _ _ _ _ _ _ P 
5 | _ _ _ _ _ _ _ _ 
4 | _ _ _ _ _ _ _ _ 
3 | _ _ N _ _ _ _ N 
2 | P P P P P P P P 
1 | R _ B Q K B _ R 
-------------------
  | A B C D E F G H 

Turn of: black
Succesful move
g7g6
8 | R N B Q K B N R 
7 | P P P P P P _ _ 
6 | _ _ _ _ _ _ P P 
5 | _ _ _ _ _ _ _ _ 
4 | _ _ _ _ _ _ _ _ 
3 | _ _ N _ _ _ _ N 
2 | P P P P P P P P 
1 | R _ B Q K B _ R 
-------------------
  | A B C D E F G H 

Turn of: white
Succesful move
g2g4
8 | R N B Q K B N R 
7 | P P P P P P _ _ 
6 | _ _ _ _ _ _ P P 
5 | _ _ _ _ _ _ _ _ 
4 | _ _ _ _ _ _ P _ 
3 | _ _ N _ _ _ _ N 
2 | P P P P P P _ P 
1 | R _ B Q K B _ R 
-------------------
  | A B C D E F G H 

Turn of: black
Succesful move
d7d6
8 | R N B Q K B N R 
7 | P P P _ P P _ _ 
6 | _ _ _ P _ _ P P 
5 | _ _ _ _ _ _ _ _ 
4 | _ _ _ _ _ _ P _ 
3 | _ _ N _ _ _ _ N 
2 | P P P P P P _ P 
1 | R _ B Q K B _ R 
-------------------
  | A B C D E F G H 

Turn of: white
Succesful move
b2b4
8 | R N B Q K B N R 
7 | P P P _ P P _ _ 
6 | _ _ _ P _ _ P P 
5 | _ _ _ _ _ _ _ _ 
4 | _ P _ _ _ _ P _ 
3 | _ _ N _ _ _ _ N 
2 | P _ P P P P _ P 
1 | R _ B Q K B _ R 
-------------------
  | A B C D E F G H 

Turn of: black
Succesful move
c8g4
8 | R N _ Q K B N R 
7 | P P P _ P P _ _ 
6 | _ _ _ P _ _ P P 
5 | _ _ _ _ _ _ _ _ 
4 | _ P _ _ _ _ B _ 
3 | _ _ N _ _ _ _ N 
2 | P _ P P P P _ P 
1 | R _ B Q K B _ R 
-------------------
  | A B C D E F G H 

Turn of: white
Succesful move
a2a4
8 | R N _ Q K B N R 
7 | P P P _ P P _ _ 
6 | _ _ _ P _ _ P P 
5 | _ _ _ _ _ _ _ _ 
4 | P P _ _ _ _ B _ 
3 | _ _ N _ _ _ _ N 
2 | _ _ P P P P _ P 
1 | R _ B Q K B _ R 
-------------------
  | A B C D E F G H 

Turn of: black
Succesful move
f8g7
8 | R N _ Q K _ N R 
7 | P P P _ P P B _ 
6 | _ _ _ P _ _ P P 
5 | _ _ _ _ _ _ _ _ 
4 | P P _ _ _ _ B _ 
3 | _ _ N _ _ _ _ N 
2 | _ _ P P P P _ P 
1 | R _ B Q K B _ R 
-------------------
  | A B C D E F G H 

Turn of: white
Succesful move
f2f3
8 | R N _ Q K _ N R 
7 | P P P _ P P B _ 
6 | _ _ _ P _ _ P P 
5 | _ _ _ _ _ _ _ _ 
4 | P P _ _ _ _ B _ 
3 | _ _ N _ _ P _ N 
2 | _ _ P P P _ _ P 
1 | R _ B Q K B _ R 
-------------------
  | A B C D E F G H 

Turn of: black
Succesful move
g7c3
8 | R N _ Q K _ N R 
7 | P P P _ P P _ _ 
6 | _ _ _ P _ _ P P 
5 | _ _ _ _ _ _ _ _ 
4 | P P _ _ _ _ B _ 
3 | _ _ B _ _ P _ N 
2 | _ _ P P P _ _ P 
1 | R _ B Q K B _ R 
-------------------
  | A B C D E F G H 

Turn of: white
Succesful move
c1b2
8 | R N _ Q K _ N R 
7 | P P P _ P P _ _ 
6 | _ _ _ P _ _ P P 
5 | _ _ _ _ _ _ _ _ 
4 | P P _ _ _ _ B _ 
3 | _ _ B _ _ P _ N 
2 | _ B P P P _ _ P 
1 | R _ _ Q K B _ R 
-------------------
  | A B C D E F G H 

Turn of: black
Succesful move
c3b2
8 | R N _ Q K _ N R 
7 | P P P _ P P _ _ 
6 | _ _ _ P _ _ P P 
5 | _ _ _ _ _ _ _ _ 
4 | P P _ _ _ _ B _ 
3 | _ _ _ _ _ P _ N 
2 | _ B P P P _ _ P 
1 | R _ _ Q K B _ R 
-------------------
  | A B C D E F G H 

Turn of: white
Succesful move
f3g4
8 | R N _ Q K _ N R 
7 | P P P _ P P _ _ 
6 | _ _ _ P _ _ P P 
5 | _ _ _ _ _ _ _ _ 
4 | P P _ _ _ _ P _ 
3 | _ _ _ _ _ _ _ N 
2 | _ B P P P _ _ P 
1 | R _ _ Q K B _ R 
-------------------
  | A B C D E F G H 

Turn of: black
Succesful move
f7f6
8 | R N _ Q K _ N R 
7 | P P P _ P _ _ _ 
6 | _ _ _ P _ P P P 
5 | _ _ _ _ _ _ _ _ 
4 | P P _ _ _ _ P _ 
3 | _ _ _ _ _ _ _ N 
2 | _ B P P P _ _ P 
1 | R _ _ Q K B _ R 
-------------------
  | A B C D E F G H 

Turn of: white
Succesful move
h3f4
8 | R N _ Q K _ N R 
7 | P P P _ P _ _ _ 
6 | _ _ _ P _ P P P 
5 | _ _ _ _ _ _ _ _ 
4 | P P _ _ _ N P _ 
3 | _ _ _ _ _ _ _ _ 
2 | _ B P P P _ _ P 
1 | R _ _ Q K B _ R 
-------------------
  | A B C D E F G H 

Turn of: black
Succesful move
g6g5
8 | R N _ Q K _ N R 
7 | P P P _ P _ _ _ 
6 | _ _ _ P _ P _ P 
5 | _ _ _ _ _ _ P _ 
4 | P P _ _ _ N P _ 
3 | _ _ _ _ _ _ _ _ 
2 | _ B P P P _ _ P 
1 | R _ _ Q K B _ R 
-------------------
  | A B C D E F G H 

Turn of: white
Succesful move
f1h3
8 | R N _ Q K _ N R 
7 | P P P _ P _ _ _ 
6 | _ _ _ P _ P _ P 
5 | _ _ _ _ _ _ P _ 
4 | P P _ _ _ N P _ 
3 | _ _ _ _ _ _ _ B 
2 | _ B P P P _ _ P 
1 | R _ _ Q K _ _ R 
-------------------
  | A B C D E F G H 

Turn of: black
Succesful move
g5f4
8 | R N _ Q K _ N R 
7 | P P P _ P _ _ _ 
6 | _ _ _ P _ P _ P 
5 | _ _ _ _ _ _ _ _ 
4 | P P _ _ _ P P _ 
3 | _ _ _ _ _ _ _ B 
2 | _ B P P P _ _ P 
1 | R _ _ Q K _ _ R 
-------------------
  | A B C D E F G H 

We are playing as White
Move history:
g1h3
h7h6
b1c3
g7g6
g2g4
d7d6
b2b4
c8g4
a2a4
f8g7
f2f3
g7c3
c1b2
c3b2
f3g4
f7f6
h3f4
g6g5
f1h3
g5f4
8 | R N _ Q K _ N R 
7 | P P P _ P _ _ _ 
6 | _ _ _ P _ P _ P 
5 | _ _ _ _ _ _ _ _ 
4 | P P _ _ _ P P _ 
3 | _ _ _ _ _ _ _ B 
2 | _ B P P P _ _ P 
1 | R _ _ Q K _ _ R 
-------------------
  | A B C D E F G H 

It is white's turn to play.
AI's move: e2e3
Move written: e2e3
[32;1m[Game] [0mPlayer's error code: 0
[32;1m[Game] [0mChecking move validity...
[32;1m[Board] [0mInitializing board...
[32;1m[Board] [0mLoading history file `championship/lizzie-iii-chess-bot/history.csv`...
[32;1m[Board] [0mLoaded 20 move(s).
[32;1m[Board] [0mLoading move file `championship/lizzie-iii-chess-bot/move.csv`...
[32;1m[Board] [0mWhite player is playing e2 to e3.
[32;1m[Board] [0m
[32;1m[Board] [0m    a b c d e f g h 
[32;1m[Board] [0m  -------------------
[32;1m[Board] [0m8 ||[30;1mr[0m|[30;1mk[0m|[7;1m [0m|[30;1mQ[0m|[30;1mK[0m| |[30;1mk[0m|[30;1mr[0m|| 8
[32;1m[Board] [0m  -------------------
[32;1m[Board] [0m7 ||[30;1mp[0m|[30;1mp[0m|[30;1mp[0m|[7;1m [0m|[30;1mp[0m|[7;1m [0m| |[7;1m [0m|| 7
[32;1m[Board] [0m  -------------------
[32;1m[Board] [0m6 ||[7;1m [0m| |[7;1m [0m|[30;1mp[0m|[7;1m [0m|[30;1mp[0m|[7;1m [0m|[30;1mp[0m|| 6
[32;1m[Board] [0m  -------------------
[32;1m[Board] [0m5 || |[7;1m [0m| |[7;1m [0m| |[7;1m [0m| |[7;1m [0m|| 5
[32;1m[Board] [0m  -------------------
[32;1m[Board] [0m4 ||[0;1mp[0m|[0;1mp[0m|[7;1m [0m| |[7;1m [0m|[30;1mp[0m|[0;1mp[0m| || 4
[32;1m[Board] [0m  -------------------
[32;1m[Board] [0m3 || |[7;1m [0m| |[7;1m [0m|[0;1mp[0m|[7;1m [0m| |[0;1mb[0m|| 3
[32;1m[Board] [0m  -------------------
[32;1m[Board] [0m2 ||[7;1m [0m|[30;1mb[0m|[0;1mp[0m|[0;1mp[0m|[7;1m [0m| |[7;1m [0m|[0;1mp[0m|| 2
[32;1m[Board] [0m  -------------------
[32;1m[Board] [0m1 ||[0;1mr[0m|[7;1m [0m| |[0;1mQ[0m|[0;1mK[0m|[7;1m [0m| |[0;1mr[0m|| 1
[32;1m[Board] [0m  -------------------
[32;1m[Board] [0m    a b c d e f g h
[32;1m[Board] [0m
[32;1m[Referee] [0mThis is the turn of the Black player...
reading moves... Captured wp!
Captured wN!
Captured wb!
Captured bb!
Captured wN!
done, got turn = 0.
finding legal moves... done, got 28 moves.
finding best one... done, displaying original position and new position:

original board:
|♜|♞| |♛|♚| |♞|♜|
|♟|♟|♟| |♟| | | |
| | | |♟| |♟| |♟|
| | | | | | | | |
|♙|♙| | | |♟|♙| |
| | | | |♙| | |♗|
| |♝|♙|♙| | | |♙|
|♖| | |♕|♔| | |♖|

new board:
|♜|♞| |♛|♚| |♞|♜|
|♟|♟|♟| |♟| | | |
| | | |♟| |♟| |♟|
| | | | | | | | |
|♙|♙| | | | |♙| |
| | | | |♟| | |♗|
| |♝|♙|♙| | | |♙|
|♖| | |♕|♔| | |♖|

creating move string... done. f4e3
creating output file... done.
[32;1m[Game] [0mPlayer's error code: 0
[32;1m[Game] [0mChecking move validity...
[32;1m[Board] [0mInitializing board...
[32;1m[Board] [0mLoading history file `championship/lizzie-iii-chess-bot/history.csv`...
[32;1m[Board] [0mLoaded 21 move(s).
[32;1m[Board] [0mLoading move file `championship/lizzie-iii-chess-bot/move.csv`...
[32;1m[Board] [0mBlack player is playing f4 to e3.
[32;1m[Board] [0m[5;1mBlack Pawn is taking White Pawn.[0m
[32;1m[Board] [0m
[32;1m[Board] [0m    a b c d e f g h 
[32;1m[Board] [0m  -------------------
[32;1m[Board] [0m8 ||[30;1mr[0m|[30;1mk[0m|[7;1m [0m|[30;1mQ[0m|[30;1mK[0m| |[30;1mk[0m|[30;1mr[0m|| 8
[32;1m[Board] [0m  -------------------
[32;1m[Board] [0m7 ||[30;1mp[0m|[30;1mp[0m|[30;1mp[0m|[7;1m [0m|[30;1mp[0m|[7;1m [0m| |[7;1m [0m|| 7
[32;1m[Board] [0m  -------------------
[32;1m[Board] [0m6 ||[7;1m [0m| |[7;1m [0m|[30;1mp[0m|[7;1m [0m|[30;1mp[0m|[7;1m [0m|[30;1mp[0m|| 6
[32;1m[Board] [0m  -------------------
[32;1m[Board] [0m5 || |[7;1m [0m| |[7;1m [0m| |[7;1m [0m| |[7;1m [0m|| 5
[32;1m[Board] [0m  -------------------
[...]
[32;1m[Board] [0m3 || |[7;1m [0m| |[7;1m [0m| |[7;1m [0m| |[0;1mb[0m|| 3
[32;1m[Board] [0m  -------------------
[32;1m[Board] [0m2 ||[7;1m [0m| |[0;1mp[0m| |[7;1m [0m| |[7;1m [0m|[0;1mp[0m|| 2
[32;1m[Board] [0m  -------------------
[32;1m[Board] [0m1 || |[7;1m [0m| |[7;1m [0m| |[7;1m [0m| |[7;1m [0m|| 1
[32;1m[Board] [0m  -------------------
[32;1m[Board] [0m    a b c d e f g h
[32;1m[Board] [0m
[32;1m[Referee] [0mThis is the turn of the Black player...
reading moves... Captured wp!
Captured wN!
Captured wb!
Captured bb!
Captured wN!
Captured wp!
Captured wp!
Captured wr!
Captured wp!
Captured wr!
Promoted to bN!
Captured bp!
Captured wq!
Captured wp!
Captured bp!
done, got turn = 0.
finding legal moves... done, got 39 moves.
finding best one... done, displaying original position and new position:

original board:
|♜|♞| | |♚| |♞|♜|
|♟| | |♛| | | | |
| | | |♟|♟|♟| |♟|
| | |♝| | | | | |
| | |♔| | |♞|♙| |
| | | | | | | |♗|
| | |♙| | | | |♙|
| | | | | | | | |

new board:
|♜|♞| | |♚| |♞|♜|
|♟| | | | | | | |
| | | |♟|♟|♟| |♟|
| | |♝| | | | | |
|♛| |♔| | |♞|♙| |
| | | | | | | |♗|
| | |♙| | | | |♙|
| | | | | | | | |

creating move string... done. d7a4
creating output file... done.
[32;1m[Game] [0mPlayer's error code: 0
[32;1m[Game] [0mChecking move validity...
[32;1m[Board] [0mInitializing board...
[32;1m[Board] [0mLoading history file `championship/lizzie-iii-chess-bot/history.csv`...
[32;1m[Board] [0mLoaded 47 move(s).
[32;1m[Board] [0mLoading move file `championship/lizzie-iii-chess-bot/move.csv`...
[32;1m[Board] [0mBlack player is playing d7 to a4.
[32;1m[Board] [0m
[32;1m[Board] [0m    a b c d e f g h 
[32;1m[Board] [0m  -------------------
[32;1m[Board] [0m8 ||[30;1mr[0m|[30;1mk[0m|[7;1m [0m| |[30;1mK[0m| |[30;1mk[0m|[30;1mr[0m|| 8
[32;1m[Board] [0m  -------------------
[32;1m[Board] [0m7 ||[30;1mp[0m|[7;1m [0m| |[7;1m [0m| |[7;1m [0m| |[7;1m [0m|| 7
[32;1m[Board] [0m  -------------------
[32;1m[Board] [0m6 ||[7;1m [0m| |[7;1m [0m|[30;1mp[0m|[30;1mp[0m|[30;1mp[0m|[7;1m [0m|[30;1mp[0m|| 6
[32;1m[Board] [0m  -------------------
[32;1m[Board] [0m5 || |[7;1m [0m|[30;1mb[0m|[7;1m [0m| |[7;1m [0m| |[7;1m [0m|| 5
[32;1m[Board] [0m  -------------------
[32;1m[Board] [0m4 ||[30;1mQ[0m| |[0;1mK[0m| |[7;1m [0m|[30;1mk[0m|[0;1mp[0m| || 4
[32;1m[Board] [0m  -------------------
[32;1m[Board] [0m3 || |[7;1m [0m| |[7;1m [0m| |[7;1m [0m| |[0;1mb[0m|| 3
[32;1m[Board] [0m  -------------------
[32;1m[Board] [0m2 ||[7;1m [0m| |[0;1mp[0m| |[7;1m [0m| |[7;1m [0m|[0;1mp[0m|| 2
[32;1m[Board] [0m  -------------------
[32;1m[Board] [0m1 || |[7;1m [0m| |[7;1m [0m| |[7;1m [0m| |[7;1m [0m|| 1
[32;1m[Board] [0m  -------------------
[32;1m[Board] [0m    a b c d e f g h
[32;1m[Board] [0m
[32;1m[Referee] [0mThis is the turn of the White player...
[32;1m[Board] [0m[33;1m[WARNING][0m [5;1mWhite King in check![0m
[32;1m[Board] [0m[33;1m[WARNING][0m    Threatened by Black Queen (a4)
Input file: championship/lizzie-iii-chess-bot/history.csv
Output file: championship/lizzie-iii-chess-bot/move.csv
Turn of: white
Succesful move
g1h3
8 | R N B Q K B N R 
7 | P P P P P P P P 
6 | _ _ _ _ _ _ _ _ 
5 | _ _ _ _ _ _ _ _ 
4 | _ _ _ _ _ _ _ _ 
3 | _ _ _ _ _ _ _ N 
2 | P P P P P P P P 
1 | R N B Q K B _ R 
-------------------
  | A B C D E F G H 

Turn of: black
Succesful move
h7h6
8 | R N B Q K B N R 
7 | P P P P P P P _ 
6 | _ _ _ _ _ _ _ P 
5 | _ _ _ _ _ _ _ _ 
4 | _ _ _ _ _ _ _ _ 
3 | _ _ _ _ _ _ _ N 
2 | P P P P P P P P 
1 | R N B Q K B _ R 
-------------------
  | A B C D E F G H 

Turn of: white
Succesful move
b1c3
8 | R N B Q K B N R 
7 | P P P P P P P _ 
6 | _ _ _ _ _ _ _ P 
5 | _ _ _ _ _ _ _ _ 
4 | _ _ _ _ _ _ _ _ 
3 | _ _ N _ _ _ _ N 
2 | P P P P P P P P 
1 | R _ B Q K B _ R 
-------------------
  | A B C D E F G H 

Turn of: black
Succesful move
g7g6
8 | R N B Q K B N R 
7 | P P P P P P _ _ 
6 | _ _ _ _ _ _ P P 
5 | _ _ _ _ _ _ _ _ 
4 | _ _ _ _ _ _ _ _ 
3 | _ _ N _ _ _ _ N 
2 | P P P P P P P P 
1 | R _ B Q K B _ R 
-------------------
  | A B C D E F G H 

Turn of: white
Succesful move
g2g4
8 | R N B Q K B N R 
7 | P P P P P P _ _ 
6 | _ _ _ _ _ _ P P 
5 | _ _ _ _ _ _ _ _ 
4 | _ _ _ _ _ _ P _ 
3 | _ _ N _ _ _ _ N 
2 | P P P P P P _ P 
1 | R _ B Q K B _ R 
-------------------
  | A B C D E F G H 

Turn of: black
Succesful move
d7d6
8 | R N B Q K B N R 
7 | P P P _ P P _ _ 
6 | _ _ _ P _ _ P P 
5 | _ _ _ _ _ _ _ _ 
4 | _ _ _ _ _ _ P _ 
3 | _ _ N _ _ _ _ N 
2 | P P P P P P _ P 
1 | R _ B Q K B _ R 
-------------------
  | A B C D E F G H 

Turn of: white
Succesful move
b2b4
8 | R N B Q K B N R 
7 | P P P _ P P _ _ 
6 | _ _ _ P _ _ P P 
5 | _ _ _ _ _ _ _ _ 
4 | _ P _ _ _ _ P _ 
3 | _ _ N _ _ _ _ N 
2 | P _ P P P P _ P 
1 | R _ B Q K B _ R 
-------------------
  | A B C D E F G H 

Turn of: black
Succesful move
c8g4
8 | R N _ Q K B N R 
7 | P P P _ P P _ _ 
6 | _ _ _ P _ _ P P 
5 | _ _ _ _ _ _ _ _ 
4 | _ P _ _ _ _ B _ 
3 | _ _ N _ _ _ _ N 
2 | P _ P P P P _ P 
1 | R _ B Q K B _ R 
-------------------
  | A B C D E F G H 

Turn of: white
Succesful move
a2a4
8 | R N _ Q K B N R 
7 | P P P _ P P _ _ 
6 | _ _ _ P _ _ P P 
5 | _ _ _ _ _ _ _ _ 
4 | P P _ _ _ _ B _ 
3 | _ _ N _ _ _ _ N 
2 | _ _ P P P P _ P 
1 | R _ B Q K B _ R 
-------------------
  | A B C D E F G H 

Turn of: black
Succesful move
f8g7
8 | R N _ Q K _ N R 
7 | P P P _ P P B _ 
6 | _ _ _ P _ _ P P 
5 | _ _ _ _ _ _ _ _ 
4 | P P _ _ _ _ B _ 
3 | _ _ N _ _ _ _ N 
2 | _ _ P P P P _ P 
1 | R _ B Q K B _ R 
-------------------
  | A B C D E F G H 

Turn of: white
Succesful move
f2f3
8 | R N _ Q K _ N R 
7 | P P P _ P P B _ 
6 | _ _ _ P _ _ P P 
5 | _ _ _ _ _ _ _ _ 
4 | P P _ _ _ _ B _ 
3 | _ _ N _ _ P _ N 
2 | _ _ P P P _ _ P 
1 | R _ B Q K B _ R 
-------------------
  | A B C D E F G H 

Turn of: black
Succesful move
g7c3
8 | R N _ Q K _ N R 
7 | P P P _ P P _ _ 
6 | _ _ _ P _ _ P P 
5 | _ _ _ _ _ _ _ _ 
4 | P P _ _ _ _ B _ 
3 | _ _ B _ _ P _ N 
2 | _ _ P P P _ _ P 
1 | R _ B Q K B _ R 
-------------------
  | A B C D E F G H 

Turn of: white
Succesful move
c1b2
8 | R N _ Q K _ N R 
7 | P P P _ P P _ _ 
6 | _ _ _ P _ _ P P 
5 | _ _ _ _ _ _ _ _ 
4 | P P _ _ _ _ B _ 
3 | _ _ B _ _ P _ N 
2 | _ B P P P _ _ P 
1 | R _ _ Q K B _ R 
-------------------
  | A B C D E F G H 

Turn of: black
Succesful move
c3b2
8 | R N _ Q K _ N R 
7 | P P P _ P P _ _ 
6 | _ _ _ P _ _ P P 
5 | _ _ _ _ _ _ _ _ 
4 | P P _ _ _ _ B _ 
3 | _ _ _ _ _ P _ N 
2 | _ B P P P _ _ P 
1 | R _ _ Q K B _ R 
-------------------
  | A B C D E F G H 

Turn of: white
Succesful move
f3g4
8 | R N _ Q K _ N R 
7 | P P P _ P P _ _ 
6 | _ _ _ P _ _ P P 
5 | _ _ _ _ _ _ _ _ 
4 | P P _ _ _ _ P _ 
3 | _ _ _ _ _ _ _ N 
2 | _ B P P P _ _ P 
1 | R _ _ Q K B _ R 
-------------------
  | A B C D E F G H 

Turn of: black
Succesful move
f7f6
8 | R N _ Q K _ N R 
7 | P P P _ P _ _ _ 
6 | _ _ _ P _ P P P 
5 | _ _ _ _ _ _ _ _ 
4 | P P _ _ _ _ P _ 
3 | _ _ _ _ _ _ _ N 
2 | _ B P P P _ _ P 
1 | R _ _ Q K B _ R 
-------------------
  | A B C D E F G H 

Turn of: white
Succesful move
h3f4
8 | R N _ Q K _ N R 
7 | P P P _ P _ _ _ 
6 | _ _ _ P _ P P P 
5 | _ _ _ _ _ _ _ _ 
4 | P P _ _ _ N P _ 
3 | _ _ _ _ _ _ _ _ 
2 | _ B P P P _ _ P 
1 | R _ _ Q K B _ R 
-------------------
  | A B C D E F G H 

Turn of: black
Succesful move
g6g5
8 | R N _ Q K _ N R 
7 | P P P _ P _ _ _ 
6 | _ _ _ P _ P _ P 
5 | _ _ _ _ _ _ P _ 
4 | P P _ _ _ N P _ 
3 | _ _ _ _ _ _ _ _ 
2 | _ B P P P _ _ P 
1 | R _ _ Q K B _ R 
-------------------
  | A B C D E F G H 

Turn of: white
Succesful move
f1h3
8 | R N _ Q K _ N R 
7 | P P P _ P _ _ _ 
6 | _ _ _ P _ P _ P 
5 | _ _ _ _ _ _ P _ 
4 | P P _ _ _ N P _ 
3 | _ _ _ _ _ _ _ B 
2 | _ B P P P _ _ P 
1 | R _ _ Q K _ _ R 
-------------------
  | A B C D E F G H 

Turn of: black
Succesful move
g5f4
8 | R N _ Q K _ N R 
7 | P P P _ P _ _ _ 
6 | _ _ _ P _ P _ P 
5 | _ _ _ _ _ _ _ _ 
4 | P P _ _ _ P P _ 
3 | _ _ _ _ _ _ _ B 
2 | _ B P P P _ _ P 
1 | R _ _ Q K _ _ R 
-------------------
  | A B C D E F G H 

Turn of: white
Succesful move
e2e3
8 | R N _ Q K _ N R 
7 | P P P _ P _ _ _ 
6 | _ _ _ P _ P _ P 
5 | _ _ _ _ _ _ _ _ 
4 | P P _ _ _ P P _ 
3 | _ _ _ _ P _ _ B 
2 | _ B P P _ _ _ P 
1 | R _ _ Q K _ _ R 
-------------------
  | A B C D E F G H 

Turn of: black
Succesful move
f4e3
8 | R N _ Q K _ N R 
7 | P P P _ P _ _ _ 
6 | _ _ _ P _ P _ P 
5 | _ _ _ _ _ _ _ _ 
4 | P P _ _ _ _ P _ 
3 | _ _ _ _ P _ _ B 
2 | _ B P P _ _ _ P 
1 | R _ _ Q K _ _ R 
-------------------
  | A B C D E F G H 

Turn of: white
Succesful move
a1a3
8 | R N _ Q K _ N R 
7 | P P P _ P _ _ _ 
6 | _ _ _ P _ P _ P 
5 | _ _ _ _ _ _ _ _ 
4 | P P _ _ _ _ P _ 
3 | R _ _ _ P _ _ B 
2 | _ B P P _ _ _ P 
1 | _ _ _ Q K _ _ R 
-------------------
  | A B C D E F G H 

Turn of: black
Succesful move
e3d2
8 | R N _ Q K _ N R 
7 | P P P _ P _ _ _ 
6 | _ _ _ P _ P _ P 
5 | _ _ _ _ _ _ _ _ 
4 | P P _ _ _ _ P _ 
3 | R _ _ _ _ _ _ B 
2 | _ B P P _ _ _ P 
1 | _ _ _ Q K _ _ R 
-------------------
  | A B C D E F G H 

Turn of: white
Succesful move
e1e2
8 | R N _ Q K _ N R 
7 | P P P _ P _ _ _ 
6 | _ _ _ P _ P _ P 
5 | _ _ _ _ _ _ _ _ 
4 | P P _ _ _ _ P _ 
3 | R _ _ _ _ _ _ B 
2 | _ B P P K _ _ P 
1 | _ _ _ Q _ _ _ R 
-------------------
  | A B C D E F G H 

Turn of: black
Succesful move
b2a3
8 | R N _ Q K _ N R 
7 | P P P _ P _ _ _ 
6 | _ _ _ P _ P _ P 
5 | _ _ _ _ _ _ _ _ 
4 | P P _ _ _ _ P _ 
3 | B _ _ _ _ _ _ B 
2 | _ _ P P K _ _ P 
1 | _ _ _ Q _ _ _ R 
-------------------
  | A B C D E F G H 

Turn of: white
Succesful move
d1g1
8 | R N _ Q K _ N R 
7 | P P P _ P _ _ _ 
6 | _ _ _ P _ P _ P 
5 | _ _ _ _ _ _ _ _ 
4 | P P _ _ _ _ P _ 
3 | B _ _ _ _ _ _ B 
2 | _ _ P P K _ _ P 
1 | _ _ _ _ _ _ Q R 
-------------------
  | A B C D E F G H 

Turn of: black
Succesful move
a3b4
8 | R N _ Q K _ N R 
7 | P P P _ P _ _ _ 
6 | _ _ _ P _ P _ P 
5 | _ _ _ _ _ _ _ _ 
4 | P B _ _ _ _ P _ 
3 | _ _ _ _ _ _ _ B 
2 | _ _ P P K _ _ P 
1 | _ _ _ _ _ _ Q R 
-------------------
  | A B C D E F G H 

Turn of: white
Succesful move
e2d3
8 | R N _ Q K _ N R 
7 | P P P _ P _ _ _ 
6 | _ _ _ P _ P _ P 
5 | _ _ _ _ _ _ _ _ 
4 | P B _ _ _ _ P _ 
3 | _ _ _ K _ _ _ B 
2 | _ _ P P _ _ _ P 
1 | _ _ _ _ _ _ Q R 
-------------------
  | A B C D E F G H 

Turn of: black
Succesful move
b7b5
8 | R N _ Q K _ N R 
7 | P _ P _ P _ _ _ 
6 | _ _ _ P _ P _ P 
5 | _ P _ _ _ _ _ _ 
4 | P B _ _ _ _ P _ 
3 | _ _ _ K _ _ _ B 
2 | _ _ P P _ _ _ P 
1 | _ _ _ _ _ _ Q R 
-------------------
  | A B C D E F G H 

Turn of: white
Succesful move
g1g2
8 | R N _ Q K _ N R 
7 | P _ P _ P _ _ _ 
6 | _ _ _ P _ P _ P 
5 | _ P _ _ _ _ _ _ 
4 | P B _ _ _ _ P _ 
3 | _ _ _ K _ _ _ B 
2 | _ _ P P _ _ Q P 
1 | _ _ _ _ _ _ _ R 
-------------------
  | A B C D E F G H 

Turn of: black
Succesful move
e7e6
8 | R N _ Q K _ N R 
7 | P _ P _ _ _ _ _ 
6 | _ _ _ P P P _ P 
5 | _ P _ _ _ _ _ _ 
4 | P B _ _ _ _ P _ 
3 | _ _ _ K _ _ _ B 
2 | _ _ P P _ _ Q P 
1 | _ _ _ _ _ _ _ R 
-------------------
  | A B C D E F G H 

Turn of: white
Succesful move
d3e2
8 | R N _ Q K _ N R 
7 | P _ P _ _ _ _ _ 
6 | _ _ _ P P P _ P 
5 | _ P _ _ _ _ _ _ 
4 | P B _ _ _ _ P _ 
3 | _ _ _ _ _ _ _ B 
2 | _ _ P P K _ Q P 
1 | _ _ _ _ _ _ _ R 
-------------------
  | A B C D E F G H 

Turn of: black
Succesful move
c7c6
8 | R N _ Q K _ N R 
7 | P _ _ _ _ _ _ _ 
6 | _ _ P P P P _ P 
5 | _ P _ _ _ _ _ _ 
4 | P B _ _ _ _ P _ 
3 | _ _ _ _ _ _ _ B 
2 | _ _ P P K _ Q P 
1 | _ _ _ _ _ _ _ R 
-------------------
  | A B C D E F G H 

Turn of: white
Succesful move
h1d1
8 | R N _ Q K _ N R 
7 | P _ _ _ _ _ _ _ 
6 | _ _ P P P P _ P 
5 | _ P _ _ _ _ _ _ 
4 | P B _ _ _ _ P _ 
3 | _ _ _ _ _ _ _ B 
2 | _ _ P P K _ Q P 
1 | _ _ _ R _ _ _ _ 
-------------------
  | A B C D E F G H 

Turn of: black
Succesful move
b4c5
8 | R N _ Q K _ N R 
7 | P _ _ _ _ _ _ _ 
6 | _ _ P P P P _ P 
5 | _ P B _ _ _ _ _ 
4 | P _ _ _ _ _ P _ 
3 | _ _ _ _ _ _ _ B 
2 | _ _ P P K _ Q P 
1 | _ _ _ R _ _ _ _ 
-------------------
  | A B C D E F G H 

Turn of: white
Succesful move
d1e1
8 | R N _ Q K _ N R 
7 | P _ _ _ _ _ _ _ 
6 | _ _ P P P P _ P 
5 | _ P B _ _ _ _ _ 
4 | P _ _ _ _ _ P _ 
3 | _ _ _ _ _ _ _ B 
2 | _ _ P P K _ Q P 
1 | _ _ _ _ R _ _ _ 
-------------------
  | A B C D E F G H 

Turn of: black
Succesful move
d2e1k
8 | R N _ Q K _ N R 
7 | P _ _ _ _ _ _ _ 
6 | _ _ P P P P _ P 
5 | _ P B _ _ _ _ _ 
4 | P _ _ _ _ _ P _ 
3 | _ _ _ _ _ _ _ B 
2 | _ _ P _ K _ Q P 
1 | _ _ _ _ N _ _ _ 
-------------------
  | A B C D E F G H 

Turn of: white
Succesful move
a4b5
8 | R N _ Q K _ N R 
7 | P _ _ _ _ _ _ _ 
6 | _ _ P P P P _ P 
5 | _ P B _ _ _ _ _ 
4 | _ _ _ _ _ _ P _ 
3 | _ _ _ _ _ _ _ B 
2 | _ _ P _ K _ Q P 
1 | _ _ _ _ N _ _ _ 
-------------------
  | A B C D E F G H 

Turn of: black
Succesful move
e1g2
8 | R N _ Q K _ N R 
7 | P _ _ _ _ _ _ _ 
6 | _ _ P P P P _ P 
5 | _ P B _ _ _ _ _ 
4 | _ _ _ _ _ _ P _ 
3 | _ _ _ _ _ _ _ B 
2 | _ _ P _ K _ N P 
1 | _ _ _ _ _ _ _ _ 
-------------------
  | A B C D E F G H 

Turn of: white
Succesful move
e2d3
8 | R N _ Q K _ N R 
7 | P _ _ _ _ _ _ _ 
6 | _ _ P P P P _ P 
5 | _ P B _ _ _ _ _ 
4 | _ _ _ _ _ _ P _ 
3 | _ _ _ K _ _ _ B 
2 | _ _ P _ _ _ N P 
1 | _ _ _ _ _ _ _ _ 
-------------------
  | A B C D E F G H 

Turn of: black
Succesful move
g2f4
8 | R N _ Q K _ N R 
7 | P _ _ _ _ _ _ _ 
6 | _ _ P P P P _ P 
5 | _ P B _ _ _ _ _ 
4 | _ _ _ _ _ N P _ 
3 | _ _ _ K _ _ _ B 
2 | _ _ P _ _ _ _ P 
1 | _ _ _ _ _ _ _ _ 
-------------------
  | A B C D E F G H 

Turn of: white
Succesful move
d3c4
8 | R N _ Q K _ N R 
7 | P _ _ _ _ _ _ _ 
6 | _ _ P P P P _ P 
5 | _ P B _ _ _ _ _ 
4 | _ _ K _ _ N P _ 
3 | _ _ _ _ _ _ _ B 
2 | _ _ P _ _ _ _ P 
1 | _ _ _ _ _ _ _ _ 
-------------------
  | A B C D E F G H 

Turn of: black
Succesful move
c6b5
8 | R N _ Q K _ N R 
7 | P _ _ _ _ _ _ _ 
6 | _ _ _ P P P _ P 
5 | _ P B _ _ _ _ _ 
4 | _ _ K _ _ N P _ 
3 | _ _ _ _ _ _ _ B 
2 | _ _ P _ _ _ _ P 
1 | _ _ _ _ _ _ _ _ 
-------------------
  | A B C D E F G H 

Turn of: white
Succesful move
c4b5
8 | R N _ Q K _ N R 
7 | P _ _ _ _ _ _ _ 
6 | _ _ _ P P P _ P 
5 | _ K B _ _ _ _ _ 
4 | _ _ _ _ _ N P _ 
3 | _ _ _ _ _ _ _ B 
2 | _ _ P _ _ _ _ P 
1 | _ _ _ _ _ _ _ _ 
-------------------
  | A B C D E F G H 

Turn of: black
Succesful move
d8d7
8 | R N _ _ K _ N R 
7 | P _ _ Q _ _ _ _ 
6 | _ _ _ P P P _ P 
5 | _ K B _ _ _ _ _ 
4 | _ _ _ _ _ N P _ 
3 | _ _ _ _ _ _ _ B 
2 | _ _ P _ _ _ _ P 
1 | _ _ _ _ _ _ _ _ 
-------------------
  | A B C D E F G H 

Turn of: white
Succesful move
b5c4
8 | R N _ _ K _ N R 
7 | P _ _ Q _ _ _ _ 
6 | _ _ _ P P P _ P 
5 | _ _ B _ _ _ _ _ 
4 | _ _ K _ _ N P _ 
3 | _ _ _ _ _ _ _ B 
2 | _ _ P _ _ _ _ P 
1 | _ _ _ _ _ _ _ _ 
-------------------
  | A B C D E F G H 

Turn of: black
Succesful move
d7a4
8 | R N _ _ K _ N R 
7 | P _ _ _ _ _ _ _ 
6 | _ _ _ P P P _ P 
5 | _ _ B _ _ _ _ _ 
4 | Q _ K _ _ N P _ 
3 | _ _ _ _ _ _ _ B 
2 | _ _ P _ _ _ _ P 
1 | _ _ _ _ _ _ _ _ 
-------------------
  | A B C D E F G H 

We are playing as White
Move history:
g1h3
h7h6
b1c3
g7g6
g2g4
d7d6
b2b4
c8g4
a2a4
f8g7
f2f3
g7c3
c1b2
c3b2
f3g4
f7f6
h3f4
g6g5
f1h3
g5f4
e2e3
f4e3
a1a3
e3d2
e1e2
b2a3
d1g1
a3b4
e2d3
b7b5
g1g2
e7e6
d3e2
c7c6
h1d1
b4c5
d1e1
d2e1k
a4b5
e1g2
e2d3
g2f4
d3c4
c6b5
c4b5
d8d7
b5c4
d7a4
8 | R N _ _ K _ N R 
7 | P _ _ _ _ _ _ _ 
6 | _ _ _ P P P _ P 
5 | _ _ B _ _ _ _ _ 
4 | Q _ K _ _ N P _ 
3 | _ _ _ _ _ _ _ B 
2 | _ _ P _ _ _ _ P 
1 | _ _ _ _ _ _ _ _ 
-------------------
  | A B C D E F G H 

It is white's turn to play.
AI's move: c4c3
Move written: c4c3
[32;1m[Game] [0mPlayer's error code: 0
[32;1m[Game] [0mChecking move validity...
[32;1m[Board] [0mInitializing board...
[32;1m[Board] [0mLoading history file `championship/lizzie-iii-chess-bot/history.csv`...
[32;1m[Board] [0mLoaded 48 move(s).
[32;1m[Board] [0mLoading move file `championship/lizzie-iii-chess-bot/move.csv`...
[32;1m[Board] [0mWhite player is playing c4 to c3.
[32;1m[Board] [0m
[32;1m[Board] [0m    a b c d e f g h 
[32;1m[Board] [0m  -------------------
[32;1m[Board] [0m8 ||[30;1mr[0m|[30;1mk[0m|[7;1m [0m| |[30;1mK[0m| |[30;1mk[0m|[30;1mr[0m|| 8
[32;1m[Board] [0m  -------------------
[32;1m[Board] [0m7 ||[30;1mp[0m|[7;1m [0m| |[7;1m [0m| |[7;1m [0m| |[7;1m [0m|| 7
[32;1m[Board] [0m  -------------------
[32;1m[Board] [0m6 ||[7;1m [0m| |[7;1m [0m|[30;1mp[0m|[30;1mp[0m|[30;1mp[0m|[7;1m [0m|[30;1mp[0m|| 6
[32;1m[Board] [0m  -------------------
[32;1m[Board] [0m5 || |[7;1m [0m|[30;1mb[0m|[7;1m [0m| |[7;1m [0m| |[7;1m [0m|| 5
[32;1m[Board] [0m  -------------------
[32;1m[Board] [0m4 ||[30;1mQ[0m| |[7;1m [0m| |[7;1m [0m|[30;1mk[0m|[0;1mp[0m| || 4
[32;1m[Board] [0m  -------------------
[32;1m[Board] [0m3 || |[7;1m [0m|[0;1mK[0m|[7;1m [0m| |[7;1m [0m| |[0;1mb[0m|| 3
[32;1m[Board] [0m  -------------------
[32;1m[Board] [0m2 ||[7;1m [0m| |[0;1mp[0m| |[7;1m [0m| |[7;1m [0m|[0;1mp[0m|| 2
[32;1m[Board] [0m  -------------------
[32;1m[Board] [0m1 || |[7;1m [0m| |[7;1m [0m| |[7;1m [0m| |[7;1m [0m|| 1
[32;1m[Board] [0m  -------------------
[32;1m[Board] [0m    a b c d e f g h
[32;1m[Board] [0m
[32;1m[Referee] [0mThis is the turn of the Black player...
reading moves... Captured wp!
Captured wN!
Captured wb!
Captured bb!
Captured wN!
Captured wp!
Captured wp!
Captured wr!
Captured wp!
Captured wr!
Promoted to bN!
Captured bp!
Captured wq!
Captured wp!
Captured bp!
done, got turn = 0.
finding legal moves... done, got 44 moves.
finding best one... done, displaying original position and new position:

original board:
|♜|♞| | |♚| |♞|♜|
|♟| | | | | | | |
| | | |♟|♟|♟| |♟|
| | |♝| | | | | |
|♛| | | | |♞|♙| |
| | |♔| | | | |♗|
| | |♙| | | | |♙|
| | | | | | | | |

new board:
|♜|♞| | |♚| |♞|♜|
|♟| | | | | | | |
| | | |♟|♟|♟| |♟|
| | |♝| | | | | |
| |♛| | | |♞|♙| |
| | |♔| | | | |♗|
| | |♙| | | | |♙|
| | | | | | | | |

creating move string... done. a4b4
creating output file... done.
[32;1m[Game] [0mPlayer's error code: 0
[32;1m[Game] [0mChecking move validity...
[32;1m[Board] [0mInitializing board...
[32;1m[Board] [0mLoading history file `championship/lizzie-iii-chess-bot/history.csv`...
[32;1m[Board] [0mLoaded 49 move(s).
[32;1m[Board] [0mLoading move file `championship/lizzie-iii-chess-bot/move.csv`...
[32;1m[Board] [0mBlack player is playing a4 to b4.
[32;1m[Board] [0m
[32;1m[Board] [0m    a b c d e f g h 
[32;1m[Board] [0m  -------------------
[32;1m[Board] [0m8 ||[30;1mr[0m|[30;1mk[0m|[7;1m [0m| |[30;1mK[0m| |[30;1mk[0m|[30;1mr[0m|| 8
[32;1m[Board] [0m  -------------------
[32;1m[Board] [0m7 ||[30;1mp[0m|[7;1m [0m| |[7;1m [0m| |[7;1m [0m| |[7;1m [0m|| 7
[32;1m[Board] [0m  -------------------
[32;1m[Board] [0m6 ||[7;1m [0m| |[7;1m [0m|[30;1mp[0m|[30;1mp[0m|[30;1mp[0m|[7;1m [0m|[30;1mp[0m|| 6
[32;1m[Board] [0m  -------------------
[32;1m[Board] [0m5 || |[7;1m [0m|[30;1mb[0m|[7;1m [0m| |[7;1m [0m| |[7;1m [0m|| 5
[32;1m[Board] [0m  -------------------
[32;1m[Board] [0m4 ||[7;1m [0m|[30;1mQ[0m|[7;1m [0m| |[7;1m [0m|[30;1mk[0m|[0;1mp[0m| || 4
[32;1m[Board] [0m  -------------------
[32;1m[Board] [0m3 || |[7;1m [0m|[0;1mK[0m|[7;1m [0m| |[7;1m [0m| |[0;1mb[0m|| 3
[32;1m[Board] [0m  -------------------
[32;1m[Board] [0m2 ||[7;1m [0m| |[0;1mp[0m| |[7;1m [0m| |[7;1m [0m|[0;1mp[0m|| 2
[32;1m[Board] [0m  -------------------
[32;1m[Board] [0m1 || |[7;1m [0m| |[7;1m [0m| |[7;1m [0m| |[7;1m [0m|| 1
[32;1m[Board] [0m  -------------------
[32;1m[Board] [0m    a b c d e f g h
[32;1m[Board] [0m
[32;1m[Referee] [0mThis is the turn of the White player...
[32;1m[Board] [0m[33;1m[WARNING][0m [5;1mWhite King in checkmate![0m
[32;1m[Board] [0m[33;1m[WARNING][0m The Black player wins!
