[32;1m[Board] [0mInitializing board...
[32;1m[Board] [0m
[32;1m[Board] [0m    a b c d e f g h 
[32;1m[Board] [0m  -------------------
[32;1m[Board] [0m8 ||[30;1mr[0m|[30;1mk[0m|[30;1mb[0m|[30;1mQ[0m|[30;1mK[0m|[30;1mb[0m|[30;1mk[0m|[30;1mr[0m|| 8
[32;1m[Board] [0m  -------------------
[32;1m[Board] [0m7 ||[30;1mp[0m|[30;1mp[0m|[30;1mp[0m|[30;1mp[0m|[30;1mp[0m|[30;1mp[0m|[30;1mp[0m|[30;1mp[0m|| 7
[32;1m[Board] [0m  -------------------
[32;1m[Board] [0m6 ||[7;1m [0m| |[7;1m [0m| |[7;1m [0m| |[7;1m [0m| || 6
[32;1m[Board] [0m  -------------------
[32;1m[Board] [0m5 || |[7;1m [0m| |[7;1m [0m| |[7;1m [0m| |[7;1m [0m|| 5
[32;1m[Board] [0m  -------------------
[32;1m[Board] [0m4 ||[7;1m [0m| |[7;1m [0m| |[7;1m [0m| |[7;1m [0m| || 4
[32;1m[Board] [0m  -------------------
[32;1m[Board] [0m3 || |[7;1m [0m| |[7;1m [0m| |[7;1m [0m| |[7;1m [0m|| 3
[32;1m[Board] [0m  -------------------
[32;1m[Board] [0m2 ||[0;1mp[0m|[0;1mp[0m|[0;1mp[0m|[0;1mp[0m|[0;1mp[0m|[0;1mp[0m|[0;1mp[0m|[0;1mp[0m|| 2
[32;1m[Board] [0m  -------------------
[32;1m[Board] [0m1 ||[0;1mr[0m|[0;1mk[0m|[0;1mb[0m|[0;1mQ[0m|[0;1mK[0m|[0;1mb[0m|[0;1mk[0m|[0;1mr[0m|| 1
[32;1m[Board] [0m  -------------------
[32;1m[Board] [0m    a b c d e f g h
[32;1m[Board] [0m
[32;1m[Referee] [0mThis is the turn of the White player...
Input file: championship/lizzie-iii-git-gambit/history.csv
Output file: championship/lizzie-iii-git-gambit/move.csv
We are playing as White
Move history:
8 | R N B Q K B N R 
7 | P P P P P P P P 
6 | _ _ _ _ _ _ _ _ 
5 | _ _ _ _ _ _ _ _ 
4 | _ _ _ _ _ _ _ _ 
3 | _ _ _ _ _ _ _ _ 
2 | P P P P P P P P 
1 | R N B Q K B N R 
-------------------
  | A B C D E F G H 

It is white's turn to play.
AI's move: e2e4
Move written: e2e4
[32;1m[Game] [0mPlayer's error code: 0
[32;1m[Game] [0mChecking move validity...
[32;1m[Board] [0mInitializing board...
[32;1m[Board] [0mLoading history file `championship/lizzie-iii-git-gambit/history.csv`...
[32;1m[Board] [0mLoaded 0 move(s).
[32;1m[Board] [0mLoading move file `championship/lizzie-iii-git-gambit/move.csv`...
[32;1m[Board] [0mWhite player is playing e2 to e4.
[32;1m[Board] [0m
[32;1m[Board] [0m    a b c d e f g h 
[32;1m[Board] [0m  -------------------
[32;1m[Board] [0m8 ||[30;1mr[0m|[30;1mk[0m|[30;1mb[0m|[30;1mQ[0m|[30;1mK[0m|[30;1mb[0m|[30;1mk[0m|[30;1mr[0m|| 8
[32;1m[Board] [0m  -------------------
[32;1m[Board] [0m7 ||[30;1mp[0m|[30;1mp[0m|[30;1mp[0m|[30;1mp[0m|[30;1mp[0m|[30;1mp[0m|[30;1mp[0m|[30;1mp[0m|| 7
[32;1m[Board] [0m  -------------------
[32;1m[Board] [0m6 ||[7;1m [0m| |[7;1m [0m| |[7;1m [0m| |[7;1m [0m| || 6
[32;1m[Board] [0m  -------------------
[32;1m[Board] [0m5 || |[7;1m [0m| |[7;1m [0m| |[7;1m [0m| |[7;1m [0m|| 5
[32;1m[Board] [0m  -------------------
[32;1m[Board] [0m4 ||[7;1m [0m| |[7;1m [0m| |[0;1mp[0m| |[7;1m [0m| || 4
[32;1m[Board] [0m  -------------------
[32;1m[Board] [0m3 || |[7;1m [0m| |[7;1m [0m| |[7;1m [0m| |[7;1m [0m|| 3
[32;1m[Board] [0m  -------------------
[32;1m[Board] [0m2 ||[0;1mp[0m|[0;1mp[0m|[0;1mp[0m|[0;1mp[0m|[7;1m [0m|[0;1mp[0m|[0;1mp[0m|[0;1mp[0m|| 2
[32;1m[Board] [0m  -------------------
[32;1m[Board] [0m1 ||[0;1mr[0m|[0;1mk[0m|[0;1mb[0m|[0;1mQ[0m|[0;1mK[0m|[0;1mb[0m|[0;1mk[0m|[0;1mr[0m|| 1
[32;1m[Board] [0m  -------------------
[32;1m[Board] [0m    a b c d e f g h
[32;1m[Board] [0m
[32;1m[Referee] [0mThis is the turn of the Black player...

    a   b   c   d   e   f   g   h 
8 | r | n | b | q | k | b | n | r  | 8
7 | p | p | p | p | p | p | p | p  | 7
6 |   |   |   |   |   |   |   |    | 6
5 |   |   |   |   |   |   |   |    | 5
4 |   |   |   |   | P |   |   |    | 4
3 |   |   |   |   |   |   |   |    | 3
2 | P | P | P | P |   | P | P | P  | 2
1 | R | N | B | Q | K | B | N | R  | 1
    a   b   c   d   e   f   g   h 

next move: e7e5

[32;1m[Game] [0mPlayer's error code: 0
[32;1m[Game] [0mChecking move validity...
[32;1m[Board] [0mInitializing board...
[32;1m[Board] [0mLoading history file `championship/lizzie-iii-git-gambit/history.csv`...
[32;1m[Board] [0mLoaded 1 move(s).
[32;1m[Board] [0mLoading move file `championship/lizzie-iii-git-gambit/move.csv`...
[32;1m[Board] [0mBlack player is playing e7 to e5.
[32;1m[Board] [0m
[32;1m[Board] [0m    a b c d e f g h 
[32;1m[Board] [0m  -------------------
[32;1m[Board] [0m8 ||[30;1mr[0m|[30;1mk[0m|[30;1mb[0m|[30;1mQ[0m|[30;1mK[0m|[30;1mb[0m|[30;1mk[0m|[30;1mr[0m|| 8
[32;1m[Board] [0m  -------------------
[32;1m[Board] [0m7 ||[30;1mp[0m|[30;1mp[0m|[30;1mp[0m|[30;1mp[0m| |[30;1mp[0m|[30;1mp[0m|[30;1mp[0m|| 7
[32;1m[Board] [0m  -------------------
[32;1m[Board] [0m6 ||[7;1m [0m| |[7;1m [0m| |[7;1m [0m| |[7;1m [0m| || 6
[32;1m[Board] [0m  -------------------
[32;1m[Board] [0m5 || |[7;1m [0m| |[7;1m [0m|[30;1mp[0m|[7;1m [0m| |[7;1m [0m|| 5
[32;1m[Board] [0m  -------------------
[32;1m[Board] [0m4 ||[7;1m [0m| |[7;1m [0m| |[0;1mp[0m| |[7;1m [0m| || 4
[32;1m[Board] [0m  -------------------
[32;1m[Board] [0m3 || |[7;1m [0m| |[7;1m [0m| |[7;1m [0m| |[7;1m [0m|| 3
[32;1m[Board] [0m  -------------------
[32;1m[Board] [0m2 ||[0;1mp[0m|[0;1mp[0m|[0;1mp[0m|[0;1mp[0m|[7;1m [0m|[0;1mp[0m|[0;1mp[0m|[0;1mp[0m|| 2
[32;1m[Board] [0m  -------------------
[32;1m[Board] [0m1 ||[0;1mr[0m|[0;1mk[0m|[0;1mb[0m|[0;1mQ[0m|[0;1mK[0m|[0;1mb[0m|[0;1mk[0m|[0;1mr[0m|| 1
[32;1m[Board] [0m  -------------------
[32;1m[Board] [0m    a b c d e f g h
[32;1m[Board] [0m
[32;1m[Referee] [0mThis is the turn of the White player...
Input file: championship/lizzie-iii-git-gambit/history.csv
Output file: championship/lizzie-iii-git-gambit/move.csv
Turn of: white
Succesful move
e2e4
8 | R N B Q K B N R 
7 | P P P P P P P P 
6 | _ _ _ _ _ _ _ _ 
5 | _ _ _ _ _ _ _ _ 
4 | _ _ _ _ P _ _ _ 
3 | _ _ _ _ _ _ _ _ 
2 | P P P P _ P P P 
1 | R N B Q K B N R 
-------------------
  | A B C D E F G H 

Turn of: black
Succesful move
e7e5
8 | R N B Q K B N R 
7 | P P P P _ P P P 
6 | _ _ _ _ _ _ _ _ 
5 | _ _ _ _ P _ _ _ 
4 | _ _ _ _ P _ _ _ 
3 | _ _ _ _ _ _ _ _ 
2 | P P P P _ P P P 
1 | R N B Q K B N R 
-------------------
  | A B C D E F G H 

We are playing as White
Move history:
e2e4
e7e5
8 | R N B Q K B N R 
7 | P P P P _ P P P 
6 | _ _ _ _ _ _ _ _ 
5 | _ _ _ _ P _ _ _ 
4 | _ _ _ _ P _ _ _ 
3 | _ _ _ _ _ _ _ _ 
2 | P P P P _ P P P 
1 | R N B Q K B N R 
-------------------
  | A B C D E F G H 

It is white's turn to play.
AI's move: d2d4
Move written: d2d4
[32;1m[Game] [0mPlayer's error code: 0
[32;1m[Game] [0mChecking move validity...
[32;1m[Board] [0mInitializing board...
[32;1m[Board] [0mLoading history file `championship/lizzie-iii-git-gambit/history.csv`...
[32;1m[Board] [0mLoaded 2 move(s).
[32;1m[Board] [0mLoading move file `championship/lizzie-iii-git-gambit/move.csv`...
[32;1m[Board] [0mWhite player is playing d2 to d4.
[32;1m[Board] [0m
[32;1m[Board] [0m    a b c d e f g h 
[32;1m[Board] [0m  -------------------
[32;1m[Board] [0m8 ||[30;1mr[0m|[30;1mk[0m|[30;1mb[0m|[30;1mQ[0m|[30;1mK[0m|[30;1mb[0m|[30;1mk[0m|[30;1mr[0m|| 8
[32;1m[Board] [0m  -------------------
[32;1m[Board] [0m7 ||[30;1mp[0m|[30;1mp[0m|[30;1mp[0m|[30;1mp[0m| |[30;1mp[0m|[30;1mp[0m|[30;1mp[0m|| 7
[32;1m[Board] [0m  -------------------
[32;1m[Board] [0m6 ||[7;1m [0m| |[7;1m [0m| |[7;1m [0m| |[7;1m [0m| || 6
[32;1m[Board] [0m  -------------------
[32;1m[Board] [0m5 || |[7;1m [0m| |[7;1m [0m|[30;1mp[0m|[7;1m [0m| |[7;1m [0m|| 5
[32;1m[Board] [0m  -------------------
[32;1m[Board] [0m4 ||[7;1m [0m| |[7;1m [0m|[0;1mp[0m|[0;1mp[0m| |[7;1m [0m| || 4
[32;1m[Board] [0m  -------------------
[32;1m[Board] [0m3 || |[7;1m [0m| |[7;1m [0m| |[7;1m [0m| |[7;1m [0m|| 3
[32;1m[Board] [0m  -------------------
[32;1m[Board] [0m2 ||[0;1mp[0m|[0;1mp[0m|[0;1mp[0m| |[7;1m [0m|[0;1mp[0m|[0;1mp[0m|[0;1mp[0m|| 2
[32;1m[Board] [0m  -------------------
[32;1m[Board] [0m1 ||[0;1mr[0m|[0;1mk[0m|[0;1mb[0m|[0;1mQ[0m|[0;1mK[0m|[0;1mb[0m|[0;1mk[0m|[0;1mr[0m|| 1
[32;1m[Board] [0m  -------------------
[32;1m[Board] [0m    a b c d e f g h
[32;1m[Board] [0m
[32;1m[Referee] [0mThis is the turn of the Black player...

    a   b   c   d   e   f   g   h 
8 | r | n | b | q | k | b | n | r  | 8
7 | p | p | p | p |   | p | p | p  | 7
6 |   |   |   |   |   |   |   |    | 6
5 |   |   |   |   | p |   |   |    | 5
4 |   |   |   | P | P |   |   |    | 4
3 |   |   |   |   |   |   |   |    | 3
2 | P | P | P |   |   | P | P | P  | 2
1 | R | N | B | Q | K | B | N | R  | 1
    a   b   c   d   e   f   g   h 

next move: b8c6

[32;1m[Game] [0mPlayer's error code: 0
[32;1m[Game] [0mChecking move validity...
[32;1m[Board] [0mInitializing board...
[32;1m[Board] [0mLoading history file `championship/lizzie-iii-git-gambit/history.csv`...
[32;1m[Board] [0mLoaded 3 move(s).
[32;1m[Board] [0mLoading move file `championship/lizzie-iii-git-gambit/move.csv`...
[32;1m[Board] [0mBlack player is playing b8 to c6.
[32;1m[Board] [0m
[32;1m[Board] [0m    a b c d e f g h 
[32;1m[Board] [0m  -------------------
[32;1m[Board] [0m8 ||[30;1mr[0m| |[30;1mb[0m|[30;1mQ[0m|[30;1mK[0m|[30;1mb[0m|[30;1mk[0m|[30;1mr[0m|| 8
[32;1m[Board] [0m  -------------------
[32;1m[Board] [0m7 ||[30;1mp[0m|[30;1mp[0m|[30;1mp[0m|[30;1mp[0m| |[30;1mp[0m|[30;1mp[0m|[30;1mp[0m|| 7
[32;1m[Board] [0m  -------------------
[32;1m[Board] [0m6 ||[7;1m [0m| |[30;1mk[0m| |[7;1m [0m| |[7;1m [0m| || 6
[32;1m[Board] [0m  -------------------
[32;1m[Board] [0m5 || |[7;1m [0m| |[7;1m [0m|[30;1mp[0m|[7;1m [0m| |[7;1m [0m|| 5
[32;1m[Board] [0m  -------------------
[32;1m[Board] [0m4 ||[7;1m [0m| |[7;1m [0m|[0;1mp[0m|[0;1mp[0m| |[7;1m [0m| || 4
[32;1m[Board] [0m  -------------------
[32;1m[Board] [0m3 || |[7;1m [0m| |[7;1m [0m| |[7;1m [0m| |[7;1m [0m|| 3
[32;1m[Board] [0m  -------------------
[32;1m[Board] [0m2 ||[0;1mp[0m|[0;1mp[0m|[0;1mp[0m| |[7;1m [0m|[0;1mp[0m|[0;1mp[0m|[0;1mp[0m|| 2
[32;1m[Board] [0m  -------------------
[32;1m[Board] [0m1 ||[0;1mr[0m|[0;1mk[0m|[0;1mb[0m|[0;1mQ[0m|[0;1mK[0m|[0;1mb[0m|[0;1mk[0m|[0;1mr[0m|| 1
[32;1m[Board] [0m  -------------------
[32;1m[Board] [0m    a b c d e f g h
[32;1m[Board] [0m
[32;1m[Referee] [0mThis is the turn of the White player...
Input file: championship/lizzie-iii-git-gambit/history.csv
Output file: championship/lizzie-iii-git-gambit/move.csv
Turn of: white
Succesful move
e2e4
8 | R N B Q K B N R 
7 | P P P P P P P P 
6 | _ _ _ _ _ _ _ _ 
5 | _ _ _ _ _ _ _ _ 
4 | _ _ _ _ P _ _ _ 
3 | _ _ _ _ _ _ _ _ 
2 | P P P P _ P P P 
1 | R N B Q K B N R 
-------------------
  | A B C D E F G H 

Turn of: black
Succesful move
e7e5
8 | R N B Q K B N R 
7 | P P P P _ P P P 
6 | _ _ _ _ _ _ _ _ 
5 | _ _ _ _ P _ _ _ 
4 | _ _ _ _ P _ _ _ 
3 | _ _ _ _ _ _ _ _ 
2 | P P P P _ P P P 
1 | R N B Q K B N R 
-------------------
  | A B C D E F G H 

Turn of: white
Succesful move
d2d4
8 | R N B Q K B N R 
7 | P P P P _ P P P 
6 | _ _ _ _ _ _ _ _ 
5 | _ _ _ _ P _ _ _ 
4 | _ _ _ P P _ _ _ 
3 | _ _ _ _ _ _ _ _ 
2 | P P P _ _ P P P 
1 | R N B Q K B N R 
-------------------
  | A B C D E F G H 

Turn of: black
Succesful move
b8c6
8 | R _ B Q K B N R 
7 | P P P P _ P P P 
6 | _ _ N _ _ _ _ _ 
5 | _ _ _ _ P _ _ _ 
4 | _ _ _ P P _ _ _ 
3 | _ _ _ _ _ _ _ _ 
2 | P P P _ _ P P P 
1 | R N B Q K B N R 
-------------------
  | A B C D E F G H 

We are playing as White
Move history:
e2e4
e7e5
d2d4
b8c6
8 | R _ B Q K B N R 
7 | P P P P _ P P P 
6 | _ _ N _ _ _ _ _ 
5 | _ _ _ _ P _ _ _ 
4 | _ _ _ P P _ _ _ 
3 | _ _ _ _ _ _ _ _ 
2 | P P P _ _ P P P 
1 | R N B Q K B N R 
-------------------
  | A B C D E F G H 

It is white's turn to play.
AI's move: d1f3
Move written: d1f3
[32;1m[Game] [0mPlayer's error code: 0
[32;1m[Game] [0mChecking move validity...
[32;1m[Board] [0mInitializing board...
[32;1m[Board] [0mLoading history file `championship/lizzie-iii-git-gambit/history.csv`...
[32;1m[Board] [0mLoaded 4 move(s).
[32;1m[Board] [0mLoading move file `championship/lizzie-iii-git-gambit/move.csv`...
[32;1m[Board] [0mWhite player is playing d1 to f3.
[32;1m[Board] [0m
[32;1m[Board] [0m    a b c d e f g h 
[32;1m[Board] [0m  -------------------
[32;1m[Board] [0m8 ||[30;1mr[0m| |[30;1mb[0m|[30;1mQ[0m|[30;1mK[0m|[30;1mb[0m|[30;1mk[0m|[30;1mr[0m|| 8
[32;1m[Board] [0m  -------------------
[32;1m[Board] [0m7 ||[30;1mp[0m|[30;1mp[0m|[30;1mp[0m|[30;1mp[0m| |[30;1mp[0m|[30;1mp[0m|[30;1mp[0m|| 7
[32;1m[Board] [0m  -------------------
[32;1m[Board] [0m6 ||[7;1m [0m| |[30;1mk[0m| |[7;1m [0m| |[7;1m [0m| || 6
[32;1m[Board] [0m  -------------------
[32;1m[Board] [0m5 || |[7;1m [0m| |[7;1m [0m|[30;1mp[0m|[7;1m [0m| |[7;1m [0m|| 5
[32;1m[Board] [0m  -------------------
[32;1m[Board] [0m4 ||[7;1m [0m| |[7;1m [0m|[0;1mp[0m|[0;1mp[0m| |[7;1m [0m| || 4
[32;1m[Board] [0m  -------------------
[32;1m[Board] [0m3 || |[7;1m [0m| |[7;1m [0m| |[0;1mQ[0m| |[7;1m [0m|| 3
[32;1m[Board] [0m  -------------------
[32;1m[Board] [0m2 ||[0;1mp[0m|[0;1mp[0m|[0;1mp[0m| |[7;1m [0m|[0;1mp[0m|[0;1mp[0m|[0;1mp[0m|| 2
[32;1m[Board] [0m  -------------------
[32;1m[Board] [0m1 ||[0;1mr[0m|[0;1mk[0m|[0;1mb[0m|[7;1m [0m|[0;1mK[0m|[0;1mb[0m|[0;1mk[0m|[0;1mr[0m|| 1
[32;1m[Board] [0m  -------------------
[32;1m[Board] [0m    a b c d e f g h
[32;1m[Board] [0m
[32;1m[Referee] [0mThis is the turn of the Black player...

    a   b   c   d   e   f   g   h 
8 | r |   | b | q | k | b | n | r  | 8
7 | p | p | p | p |   | p | p | p  | 7
6 |   |   | n |   |   |   |   |    | 6
5 |   |   |   |   | p |   |   |    | 5
4 |   |   |   | P | P |   |   |    | 4
3 |   |   |   |   |   | Q |   |    | 3
2 | P | P | P |   |   | P | P | P  | 2
1 | R | N | B |   | K | B | N | R  | 1
    a   b   c   d   e   f   g   h 

next move: f8c5

[32;1m[Game] [0mPlayer's error code: 0
[32;1m[Game] [0mChecking move validity...
[32;1m[Board] [0mInitializing board...
[32;1m[Board] [0mLoading history file `championship/lizzie-iii-git-gambit/history.csv`...
[32;1m[Board] [0mLoaded 5 move(s).
[32;1m[Board] [0mLoading move file `championship/lizzie-iii-git-gambit/move.csv`...
[32;1m[Board] [0mBlack player is playing f8 to c5.
[32;1m[Board] [0m
[32;1m[Board] [0m    a b c d e f g h 
[32;1m[Board] [0m  -------------------
[32;1m[Board] [0m8 ||[30;1mr[0m| |[30;1mb[0m|[30;1mQ[0m|[30;1mK[0m| |[30;1mk[0m|[30;1mr[0m|| 8
[32;1m[Board] [0m  -------------------
[32;1m[Board] [0m7 ||[30;1mp[0m|[30;1mp[0m|[30;1mp[0m|[30;1mp[0m| |[30;1mp[0m|[30;1mp[0m|[30;1mp[0m|| 7
[32;1m[Board] [0m  -------------------
[32;1m[Board] [0m6 ||[7;1m [0m| |[30;1mk[0m| |[7;1m [0m| |[7;1m [0m| || 6
[32;1m[Board] [0m  -------------------
[32;1m[Board] [0m5 || |[7;1m [0m|[30;1mb[0m|[7;1m [0m|[30;1mp[0m|[7;1m [0m| |[7;1m [0m|| 5
[32;1m[Board] [0m  -------------------
[32;1m[Board] [0m4 ||[7;1m [0m| |[7;1m [0m|[0;1mp[0m|[0;1mp[0m| |[7;1m [0m| || 4
[32;1m[Board] [0m  -------------------
[32;1m[Board] [0m3 || |[7;1m [0m| |[7;1m [0m| |[0;1mQ[0m| |[7;1m [0m|| 3
[32;1m[Board] [0m  -------------------
[32;1m[Board] [0m2 ||[0;1mp[0m|[0;1mp[0m|[0;1mp[0m| |[7;1m [0m|[0;1mp[0m|[0;1mp[0m|[0;1mp[0m|| 2
[32;1m[Board] [0m  -------------------
[32;1m[Board] [0m1 ||[0;1mr[0m|[0;1mk[0m|[0;1mb[0m|[7;1m [0m|[0;1mK[0m|[0;1mb[0m|[0;1mk[0m|[0;1mr[0m|| 1
[32;1m[Board] [0m  -------------------
[32;1m[Board] [0m    a b c d e f g h
[32;1m[Board] [0m
[32;1m[Referee] [0mThis is the turn of the White player...
Input file: championship/lizzie-iii-git-gambit/history.csv
Output file: championship/lizzie-iii-git-gambit/move.csv
Turn of: white
Succesful move
e2e4
8 | R N B Q K B N R 
7 | P P P P P P P P 
6 | _ _ _ _ _ _ _ _ 
5 | _ _ _ _ _ _ _ _ 
4 | _ _ _ _ P _ _ _ 
3 | _ _ _ _ _ _ _ _ 
2 | P P P P _ P P P 
1 | R N B Q K B N R 
-------------------
  | A B C D E F G H 

Turn of: black
Succesful move
e7e5
8 | R N B Q K B N R 
7 | P P P P _ P P P 
6 | _ _ _ _ _ _ _ _ 
5 | _ _ _ _ P _ _ _ 
4 | _ _ _ _ P _ _ _ 
3 | _ _ _ _ _ _ _ _ 
2 | P P P P _ P P P 
1 | R N B Q K B N R 
-------------------
  | A B C D E F G H 

Turn of: white
Succesful move
d2d4
8 | R N B Q K B N R 
7 | P P P P _ P P P 
6 | _ _ _ _ _ _ _ _ 
5 | _ _ _ _ P _ _ _ 
4 | _ _ _ P P _ _ _ 
3 | _ _ _ _ _ _ _ _ 
2 | P P P _ _ P P P 
1 | R N B Q K B N R 
-------------------
  | A B C D E F G H 

Turn of: black
Succesful move
b8c6
8 | R _ B Q K B N R 
7 | P P P P _ P P P 
6 | _ _ N _ _ _ _ _ 
5 | _ _ _ _ P _ _ _ 
4 | _ _ _ P P _ _ _ 
3 | _ _ _ _ _ _ _ _ 
2 | P P P _ _ P P P 
1 | R N B Q K B N R 
-------------------
  | A B C D E F G H 

Turn of: white
Succesful move
d1f3
8 | R _ B Q K B N R 
7 | P P P P _ P P P 
6 | _ _ N _ _ _ _ _ 
5 | _ _ _ _ P _ _ _ 
4 | _ _ _ P P _ _ _ 
3 | _ _ _ _ _ Q _ _ 
2 | P P P _ _ P P P 
1 | R N B _ K B N R 
-------------------
  | A B C D E F G H 

Turn of: black
Succesful move
f8c5
8 | R _ B Q K _ N R 
7 | P P P P _ P P P 
6 | _ _ N _ _ _ _ _ 
5 | _ _ B _ P _ _ _ 
4 | _ _ _ P P _ _ _ 
3 | _ _ _ _ _ Q _ _ 
2 | P P P _ _ P P P 
1 | R N B _ K B N R 
-------------------
  | A B C D E F G H 

We are playing as White
Move history:
e2e4
e7e5
d2d4
b8c6
d1f3
f8c5
8 | R _ B Q K _ N R 
7 | P P P P _ P P P 
6 | _ _ N _ _ _ _ _ 
5 | _ _ B _ P _ _ _ 
4 | _ _ _ P P _ _ _ 
3 | _ _ _ _ _ Q _ _ 
2 | P P P _ _ P P P 
1 | R N B _ K B N R 
-------------------
  | A B C D E F G H 

It is white's turn to play.
AI's move: f3a3
Move written: f3a3
[32;1m[Game] [0mPlayer's error code: 0
[32;1m[Game] [0mChecking move validity...
[32;1m[Board] [0mInitializing board...
[32;1m[Board] [0mLoading history file `championship/lizzie-iii-git-gambit/history.csv`...
[32;1m[Board] [0mLoaded 6 move(s).
[32;1m[Board] [0mLoading move file `championship/lizzie-iii-git-gambit/move.csv`...
[32;1m[Board] [0mWhite player is playing f3 to a3.
[32;1m[Board] [0m
[32;1m[Board] [0m    a b c d e f g h 
[32;1m[Board] [0m  -------------------
[32;1m[Board] [0m8 ||[30;1mr[0m| |[30;1mb[0m|[30;1mQ[0m|[30;1mK[0m| |[30;1mk[0m|[30;1mr[0m|| 8
[32;1m[Board] [0m  -------------------
[32;1m[Board] [0m7 ||[30;1mp[0m|[30;1mp[0m|[30;1mp[0m|[30;1mp[0m| |[30;1mp[0m|[30;1mp[0m|[30;1mp[0m|| 7
[32;1m[Board] [0m  -------------------
[32;1m[Board] [0m6 ||[7;1m [0m| |[30;1mk[0m| |[7;1m [0m| |[7;1m [0m| || 6
[32;1m[Board] [0m  -------------------
[32;1m[Board] [0m5 || |[7;1m [0m|[30;1mb[0m|[7;1m [0m|[30;1mp[0m|[7;1m [0m| |[7;1m [0m|| 5
[32;1m[Board] [0m  -------------------
[32;1m[Board] [0m4 ||[7;1m [0m| |[7;1m [0m|[0;1mp[0m|[0;1mp[0m| |[7;1m [0m| || 4
[32;1m[Board] [0m  -------------------
[32;1m[Board] [0m3 ||[0;1mQ[0m|[7;1m [0m| |[7;1m [0m| |[7;1m [0m| |[7;1m [0m|| 3
[32;1m[Board] [0m  -------------------
[32;1m[Board] [0m2 ||[0;1mp[0m|[0;1mp[0m|[0;1mp[0m| |[7;1m [0m|[0;1mp[0m|[0;1mp[0m|[0;1mp[0m|| 2
[32;1m[Board] [0m  -------------------
[32;1m[Board] [0m1 ||[0;1mr[0m|[0;1mk[0m|[0;1mb[0m|[7;1m [0m|[0;1mK[0m|[0;1mb[0m|[0;1mk[0m|[0;1mr[0m|| 1
[32;1m[Board] [0m  -------------------
[32;1m[Board] [0m    a b c d e f g h
[32;1m[Board] [0m
[32;1m[Referee] [0mThis is the turn of the Black player...

    a   b   c   d   e   f   g   h 
8 | r |   | b | q | k |   | n | r  | 8
7 | p | p | p | p |   | p | p | p  | 7
6 |   |   | n |   |   |   |   |    | 6
5 |   |   | b |   | p |   |   |    | 5
4 |   |   |   | P | P |   |   |    | 4
3 | Q |   |   |   |   |   |   |    | 3
2 | P | P | P |   |   | P | P | P  | 2
1 | R | N | B |   | K | B | N | R  | 1
    a   b   c   d   e   f   g   h 

next move: c5a3

[32;1m[Game] [0mPlayer's error code: 0
[32;1m[Game] [0mChecking move validity...
[32;1m[Board] [0mInitializing board...
[32;1m[Board] [0mLoading history file `championship/lizzie-iii-git-gambit/history.csv`...
[32;1m[Board] [0mLoaded 7 move(s).
[32;1m[Board] [0mLoading move file `championship/lizzie-iii-git-gambit/move.csv`...
[32;1m[Board] [0mBlack player is playing c5 to a3.
[32;1m[Board] [0m[5;1mBlack Bishop is taking White Queen.[0m
[32;1m[Board] [0m
[32;1m[Board] [0m    a b c d e f g h 
[32;1m[Board] [0m  -------------------
[32;1m[Board] [0m8 ||[30;1mr[0m| |[30;1mb[0m|[30;1mQ[0m|[30;1mK[0m| |[30;1mk[0m|[30;1mr[0m|| 8
[32;1m[Board] [0m  -------------------
[32;1m[Board] [0m7 ||[30;1mp[0m|[30;1mp[0m|[30;1mp[0m|[30;1mp[0m| |[30;1mp[0m|[30;1mp[0m|[30;1mp[0m|| 7
[32;1m[Board] [0m  -------------------
[32;1m[Board] [0m6 ||[7;1m [0m| |[30;1mk[0m| |[7;1m [0m| |[7;1m [0m| || 6
[32;1m[Board] [0m  -------------------
[32;1m[Board] [0m5 || |[7;1m [0m| |[7;1m [0m|[30;1mp[0m|[7;1m [0m| |[7;1m [0m|| 5
[32;1m[Board] [0m  -------------------
[32;1m[Board] [0m4 ||[7;1m [0m| |[7;1m [0m|[0;1mp[0m|[0;1mp[0m| |[7;1m [0m| || 4
[32;1m[Board] [0m  -------------------
[32;1m[Board] [0m3 ||[30;1mb[0m|[7;1m [0m| |[7;1m [0m| |[7;1m [0m| |[7;1m [0m|| 3
[32;1m[Board] [0m  -------------------
[32;1m[Board] [0m2 ||[0;1mp[0m|[0;1mp[0m|[0;1mp[0m| |[7;1m [0m|[0;1mp[0m|[0;1mp[0m|[0;1mp[0m|| 2
[32;1m[Board] [0m  -------------------
[32;1m[Board] [0m1 ||[0;1mr[0m|[0;1mk[0m|[0;1mb[0m|[7;1m [0m|[0;1mK[0m|[0;1mb[0m|[0;1mk[0m|[0;1mr[0m|| 1
[32;1m[Board] [0m  -------------------
[32;1m[Board] [0m    a b c d e f g h
[32;1m[Board] [0m
[32;1m[Referee] [0mThis is the turn of the White player...
Input file: championship/lizzie-iii-git-gambit/history.csv
Output file: championship/lizzie-iii-git-gambit/move.csv
Turn of: white
Succesful move
e2e4
8 | R N B Q K B N R 
7 | P P P P P P P P 
6 | _ _ _ _ _ _ _ _ 
5 | _ _ _ _ _ _ _ _ 
4 | _ _ _ _ P _ _ _ 
3 | _ _ _ _ _ _ _ _ 
2 | P P P P _ P P P 
1 | R N B Q K B N R 
-------------------
  | A B C D E F G H 

Turn of: black
Succesful move
e7e5
8 | R N B Q K B N R 
7 | P P P P _ P P P 
6 | _ _ _ _ _ _ _ _ 
5 | _ _ _ _ P _ _ _ 
4 | _ _ _ _ P _ _ _ 
3 | _ _ _ _ _ _ _ _ 
2 | P P P P _ P P P 
1 | R N B Q K B N R 
-------------------
  | A B C D E F G H 

Turn of: white
Succesful move
d2d4
8 | R N B Q K B N R 
7 | P P P P _ P P P 
6 | _ _ _ _ _ _ _ _ 
5 | _ _ _ _ P _ _ _ 
4 | _ _ _ P P _ _ _ 
3 | _ _ _ _ _ _ _ _ 
2 | P P P _ _ P P P 
1 | R N B Q K B N R 
-------------------
  | A B C D E F G H 

Turn of: black
Succesful move
b8c6
8 | R _ B Q K B N R 
7 | P P P P _ P P P 
6 | _ _ N _ _ _ _ _ 
5 | _ _ _ _ P _ _ _ 
4 | _ _ _ P P _ _ _ 
3 | _ _ _ _ _ _ _ _ 
2 | P P P _ _ P P P 
1 | R N B Q K B N R 
-------------------
  | A B C D E F G H 

Turn of: white
Succesful move
d1f3
8 | R _ B Q K B N R 
7 | P P P P _ P P P 
6 | _ _ N _ _ _ _ _ 
5 | _ _ _ _ P _ _ _ 
4 | _ _ _ P P _ _ _ 
3 | _ _ _ _ _ Q _ _ 
2 | P P P _ _ P P P 
1 | R N B _ K B N R 
-------------------
  | A B C D E F G H 

Turn of: black
Succesful move
f8c5
8 | R _ B Q K _ N R 
7 | P P P P _ P P P 
6 | _ _ N _ _ _ _ _ 
5 | _ _ B _ P _ _ _ 
4 | _ _ _ P P _ _ _ 
3 | _ _ _ _ _ Q _ _ 
2 | P P P _ _ P P P 
1 | R N B _ K B N R 
-------------------
  | A B C D E F G H 

Turn of: white
Succesful move
f3a3
8 | R _ B Q K _ N R 
7 | P P P P _ P P P 
6 | _ _ N _ _ _ _ _ 
5 | _ _ B _ P _ _ _ 
4 | _ _ _ P P _ _ _ 
3 | Q _ _ _ _ _ _ _ 
2 | P P P _ _ P P P 
1 | R N B _ K B N R 
-------------------
  | A B C D E F G H 

Turn of: black
Succesful move
c5a3
8 | R _ B Q K _ N R 
7 | P P P P _ P P P 
6 | _ _ N _ _ _ _ _ 
5 | _ _ _ _ P _ _ _ 
4 | _ _ _ P P _ _ _ 
3 | B _ _ _ _ _ _ _ 
2 | P P P _ _ P P P 
1 | R N B _ K B N R 
-------------------
  | A B C D E F G H 

We are playing as White
Move history:
e2e4
e7e5
d2d4
b8c6
d1f3
f8c5
f3a3
c5a3
8 | R _ B Q K _ N R 
7 | P P P P _ P P P 
6 | _ _ N _ _ _ _ _ 
5 | _ _ _ _ P _ _ _ 
4 | _ _ _ P P _ _ _ 
3 | B _ _ _ _ _ _ _ 
2 | P P P _ _ P P P 
1 | R N B _ K B N R 
-------------------
  | A B C D E F G H 

It is white's turn to play.
AI's move: f2f4
Move written: f2f4
[32;1m[Game] [0mPlayer's error code: 0
[32;1m[Game] [0mChecking move validity...
[32;1m[Board] [0mInitializing board...
[32;1m[Board] [0mLoading history file `championship/lizzie-iii-git-gambit/history.csv`...
[32;1m[Board] [0mLoaded 8 move(s).
[32;1m[Board] [0mLoading move file `championship/lizzie-iii-git-gambit/move.csv`...
[32;1m[Board] [0mWhite player is playing f2 to f4.
[32;1m[Board] [0m
[32;1m[Board] [0m    a b c d e f g h 
[32;1m[Board] [0m  -------------------
[32;1m[Board] [0m8 ||[30;1mr[0m| |[30;1mb[0m|[30;1mQ[0m|[30;1mK[0m| |[30;1mk[0m|[30;1mr[0m|| 8
[32;1m[Board] [0m  -------------------
[32;1m[Board] [0m7 ||[30;1mp[0m|[30;1mp[0m|[30;1mp[0m|[30;1mp[0m| |[30;1mp[0m|[30;1mp[0m|[30;1mp[0m|| 7
[32;1m[Board] [0m  -------------------
[32;1m[Board] [0m6 ||[7;1m [0m| |[30;1mk[0m| |[7;1m [0m| |[7;1m [0m| || 6
[32;1m[Board] [0m  -------------------
[32;1m[Board] [0m5 || |[7;1m [0m| |[7;1m [0m|[30;1mp[0m|[7;1m [0m| |[7;1m [0m|| 5
[32;1m[Board] [0m  -------------------
[32;1m[Board] [0m4 ||[7;1m [0m| |[7;1m [0m|[0;1mp[0m|[0;1mp[0m|[0;1mp[0m|[7;1m [0m| || 4
[32;1m[Board] [0m  -------------------
[32;1m[Board] [0m3 ||[30;1mb[0m|[7;1m [0m| |[7;1m [0m| |[7;1m [0m| |[7;1m [0m|| 3
[32;1m[Board] [0m  -------------------
[32;1m[Board] [0m2 ||[0;1mp[0m|[0;1mp[0m|[0;1mp[0m| |[7;1m [0m| |[0;1mp[0m|[0;1mp[0m|| 2
[32;1m[Board] [0m  -------------------
[32;1m[Board] [0m1 ||[0;1mr[0m|[0;1mk[0m|[0;1mb[0m|[7;1m [0m|[0;1mK[0m|[0;1mb[0m|[0;1mk[0m|[0;1mr[0m|| 1
[32;1m[Board] [0m  -------------------
[32;1m[Board] [0m    a b c d e f g h
[32;1m[Board] [0m
[32;1m[Referee] [0mThis is the turn of the Black player...

    a   b   c   d   e   f   g   h 
8 | r |   | b | q | k |   | n | r  | 8
7 | p | p | p | p |   | p | p | p  | 7
6 |   |   | n |   |   |   |   |    | 6
5 |   |   |   |   | p |   |   |    | 5
4 |   |   |   | P | P | P |   |    | 4
3 | b |   |   |   |   |   |   |    | 3
2 | P | P | P |   |   |   | P | P  | 2
1 | R | N | B |   | K | B | N | R  | 1
    a   b   c   d   e   f   g   h 

next move: e5d4

[32;1m[Game] [0mPlayer's error code: 0
[32;1m[Game] [0mChecking move validity...
[32;1m[Board] [0mInitializing board...
[32;1m[Board] [0mLoading history file `championship/lizzie-iii-git-gambit/history.csv`...
[32;1m[Board] [0mLoaded 9 move(s).
[32;1m[Board] [0mLoading move file `championship/lizzie-iii-git-gambit/move.csv`...
[32;1m[Board] [0mBlack player is playing e5 to d4.
[32;1m[Board] [0m[5;1mBlack Pawn is taking White Pawn.[0m
[32;1m[Board] [0m
[32;1m[Board] [0m    a b c d e f g h 
[32;1m[Board] [0m  -------------------
[32;1m[Board] [0m8 ||[30;1mr[0m| |[30;1mb[0m|[30;1mQ[0m|[30;1mK[0m| |[30;1mk[0m|[30;1mr[0m|| 8
[32;1m[Board] [0m  -------------------
[32;1m[Board] [0m7 ||[30;1mp[0m|[30;1mp[0m|[30;1mp[0m|[30;1mp[0m| |[30;1mp[0m|[30;1mp[0m|[30;1mp[0m|| 7
[32;1m[Board] [0m  -------------------
[32;1m[Board] [0m6 ||[7;1m [0m| |[30;1mk[0m| |[7;1m [0m| |[7;1m [0m| || 6
[32;1m[Board] [0m  -------------------
[32;1m[Board] [0m5 || |[7;1m [0m| |[7;1m [0m| |[7;1m [0m| |[7;1m [0m|| 5
[32;1m[Board] [0m  -------------------
[32;1m[Board] [0m4 ||[7;1m [0m| |[7;1m [0m|[30;1mp[0m|[0;1mp[0m|[0;1mp[0m|[7;1m [0m| || 4
[32;1m[Board] [0m  -------------------
[32;1m[Board] [0m3 ||[30;1mb[0m|[7;1m [0m| |[7;1m [0m| |[7;1m [0m| |[7;1m [0m|| 3
[32;1m[Board] [0m  -------------------
[32;1m[Board] [0m2 ||[0;1mp[0m|[0;1mp[0m|[0;1mp[0m| |[7;1m [0m| |[0;1mp[0m|[0;1mp[0m|| 2
[32;1m[Board] [0m  -------------------
[32;1m[Board] [0m1 ||[0;1mr[0m|[0;1mk[0m|[0;1mb[0m|[7;1m [0m|[0;1mK[0m|[0;1mb[0m|[0;1mk[0m|[0;1mr[0m|| 1
[32;1m[Board] [0m  -------------------
[32;1m[Board] [0m    a b c d e f g h
[32;1m[Board] [0m
[32;1m[Referee] [0mThis is the turn of the White player...
Input file: championship/lizzie-iii-git-gambit/history.csv
Output file: championship/lizzie-iii-git-gambit/move.csv
Turn of: white
Succesful move
e2e4
8 | R N B Q K B N R 
7 | P P P P P P P P 
6 | _ _ _ _ _ _ _ _ 
5 | _ _ _ _ _ _ _ _ 
4 | _ _ _ _ P _ _ _ 
3 | _ _ _ _ _ _ _ _ 
2 | P P P P _ P P P 
1 | R N B Q K B N R 
-------------------
  | A B C D E F G H 

Turn of: black
Succesful move
e7e5
8 | R N B Q K B N R 
7 | P P P P _ P P P 
6 | _ _ _ _ _ _ _ _ 
5 | _ _ _ _ P _ _ _ 
4 | _ _ _ _ P _ _ _ 
3 | _ _ _ _ _ _ _ _ 
2 | P P P P _ P P P 
1 | R N B Q K B N R 
-------------------
  | A B C D E F G H 

Turn of: white
Succesful move
d2d4
8 | R N B Q K B N R 
7 | P P P P _ P P P 
6 | _ _ _ _ _ _ _ _ 
5 | _ _ _ _ P _ _ _ 
4 | _ _ _ P P _ _ _ 
3 | _ _ _ _ _ _ _ _ 
2 | P P P _ _ P P P 
1 | R N B Q K B N R 
-------------------
  | A B C D E F G H 

Turn of: black
Succesful move
b8c6
8 | R _ B Q K B N R 
7 | P P P P _ P P P 
6 | _ _ N _ _ _ _ _ 
5 | _ _ _ _ P _ _ _ 
4 | _ _ _ P P _ _ _ 
3 | _ _ _ _ _ _ _ _ 
2 | P P P _ _ P P P 
1 | R N B Q K B N R 
-------------------
  | A B C D E F G H 

Turn of: white
Succesful move
d1f3
8 | R _ B Q K B N R 
7 | P P P P _ P P P 
6 | _ _ N _ _ _ _ _ 
5 | _ _ _ _ P _ _ _ 
4 | _ _ _ P P _ _ _ 
3 | _ _ _ _ _ Q _ _ 
2 | P P P _ _ P P P 
1 | R N B _ K B N R 
-------------------
  | A B C D E F G H 

Turn of: black
Succesful move
f8c5
8 | R _ B Q K _ N R 
7 | P P P P _ P P P 
6 | _ _ N _ _ _ _ _ 
5 | _ _ B _ P _ _ _ 
4 | _ _ _ P P _ _ _ 
3 | _ _ _ _ _ Q _ _ 
2 | P P P _ _ P P P 
1 | R N B _ K B N R 
-------------------
  | A B C D E F G H 

Turn of: white
Succesful move
f3a3
8 | R _ B Q K _ N R 
7 | P P P P _ P P P 
6 | _ _ N _ _ _ _ _ 
5 | _ _ B _ P _ _ _ 
4 | _ _ _ P P _ _ _ 
3 | Q _ _ _ _ _ _ _ 
2 | P P P _ _ P P P 
1 | R N B _ K B N R 
-------------------
  | A B C D E F G H 

Turn of: black
Succesful move
c5a3
8 | R _ B Q K _ N R 
7 | P P P P _ P P P 
6 | _ _ N _ _ _ _ _ 
5 | _ _ _ _ P _ _ _ 
4 | _ _ _ P P _ _ _ 
3 | B _ _ _ _ _ _ _ 
2 | P P P _ _ P P P 
1 | R N B _ K B N R 
-------------------
  | A B C D E F G H 

Turn of: white
Succesful move
f2f4
8 | R _ B Q K _ N R 
7 | P P P P _ P P P 
6 | _ _ N _ _ _ _ _ 
5 | _ _ _ _ P _ _ _ 
4 | _ _ _ P P P _ _ 
3 | B _ _ _ _ _ _ _ 
2 | P P P _ _ _ P P 
1 | R N B _ K B N R 
-------------------
  | A B C D E F G H 

Turn of: black
Succesful move
e5d4
8 | R _ B Q K _ N R 
7 | P P P P _ P P P 
6 | _ _ N _ _ _ _ _ 
5 | _ _ _ _ _ _ _ _ 
4 | _ _ _ P P P _ _ 
3 | B _ _ _ _ _ _ _ 
2 | P P P _ _ _ P P 
1 | R N B _ K B N R 
-------------------
  | A B C D E F G H 

We are playing as White
Move history:
e2e4
e7e5
d2d4
b8c6
d1f3
f8c5
f3a3
c5a3
f2f4
e5d4
8 | R _ B Q K _ N R 
7 | P P P P _ P P P 
6 | _ _ N _ _ _ _ _ 
5 | _ _ _ _ _ _ _ _ 
4 | _ _ _ P P P _ _ 
3 | B _ _ _ _ _ _ _ 
2 | P P P _ _ _ P P 
1 | R N B _ K B N R 
-------------------
  | A B C D E F G H 

It is white's turn to play.
AI's move: b2b4
Move written: b2b4
[32;1m[Game] [0mPlayer's error code: 0
[32;1m[Game] [0mChecking move validity...
[32;1m[Board] [0mInitializing board...
[32;1m[Board] [0mLoading history file `championship/lizzie-iii-git-gambit/history.csv`...
[32;1m[Board] [0mLoaded 10 move(s).
[32;1m[Board] [0mLoading move file `championship/lizzie-iii-git-gambit/move.csv`...
[32;1m[Board] [0mWhite player is playing b2 to b4.
[32;1m[Board] [0m
[32;1m[Board] [0m    a b c d e f g h 
[32;1m[Board] [0m  -------------------
[32;1m[Board] [0m8 ||[30;1mr[0m| |[30;1mb[0m|[30;1mQ[0m|[30;1mK[0m| |[30;1mk[0m|[30;1mr[0m|| 8
[32;1m[Board] [0m  -------------------
[32;1m[Board] [0m7 ||[30;1mp[0m|[30;1mp[0m|[30;1mp[0m|[30;1mp[0m| |[30;1mp[0m|[30;1mp[0m|[30;1mp[0m|| 7
[32;1m[Board] [0m  -------------------
[32;1m[Board] [0m6 ||[7;1m [0m| |[30;1mk[0m| |[7;1m [0m| |[7;1m [0m| || 6
[32;1m[Board] [0m  -------------------
[32;1m[Board] [0m5 || |[7;1m [0m| |[7;1m [0m| |[7;1m [0m| |[7;1m [0m|| 5
[32;1m[Board] [0m  -------------------
[32;1m[Board] [0m4 ||[7;1m [0m|[0;1mp[0m|[7;1m [0m|[30;1mp[0m|[0;1mp[0m|[0;1mp[0m|[7;1m [0m| || 4
[32;1m[Board] [0m  -------------------
[32;1m[Board] [0m3 ||[30;1mb[0m|[7;1m [0m| |[7;1m [0m| |[7;1m [0m| |[7;1m [0m|| 3
[32;1m[Board] [0m  -------------------
[32;1m[Board] [0m2 ||[0;1mp[0m| |[0;1mp[0m| |[7;1m [0m| |[0;1mp[0m|[0;1mp[0m|| 2
[32;1m[Board] [0m  -------------------
[32;1m[Board] [0m1 ||[0;1mr[0m|[0;1mk[0m|[0;1mb[0m|[7;1m [0m|[0;1mK[0m|[0;1mb[0m|[0;1mk[0m|[0;1mr[0m|| 1
[32;1m[Board] [0m  -------------------
[32;1m[Board] [0m    a b c d e f g h
[32;1m[Board] [0m
[32;1m[Referee] [0mThis is the turn of the Black player...

    a   b   c   d   e   f   g   h 
8 | r |   | b | q | k |   | n | r  | 8
7 | p | p | p | p |   | p | p | p  | 7
6 |   |   | n |   |   |   |   |    | 6
5 |   |   |   |   |   |   |   |    | 5
4 |   | P |   | p | P | P |   |    | 4
3 | b |   |   |   |   |   |   |    | 3
2 | P |   | P |   |   |   | P | P  | 2
1 | R | N | B |   | K | B | N | R  | 1
    a   b   c   d   e   f   g   h 

next move: a3c1

[32;1m[Game] [0mPlayer's error code: 0
[32;1m[Game] [0mChecking move validity...
[32;1m[Board] [0mInitializing board...
[32;1m[Board] [0mLoading history file `championship/lizzie-iii-git-gambit/history.csv`...
[32;1m[Board] [0mLoaded 11 move(s).
[32;1m[Board] [0mLoading move file `championship/lizzie-iii-git-gambit/move.csv`...
[32;1m[Board] [0mBlack player is playing a3 to c1.
[32;1m[Board] [0m[5;1mBlack Bishop is taking White Bishop.[0m
[32;1m[Board] [0m
[32;1m[Board] [0m    a b c d e f g h 
[32;1m[Board] [0m  -------------------
[32;1m[Board] [0m8 ||[30;1mr[0m| |[30;1mb[0m|[30;1mQ[0m|[30;1mK[0m| |[30;1mk[0m|[30;1mr[0m|| 8
[32;1m[Board] [0m  -------------------
[32;1m[Board] [0m7 ||[30;1mp[0m|[30;1mp[0m|[30;1mp[0m|[30;1mp[0m| |[30;1mp[0m|[30;1mp[0m|[30;1mp[0m|| 7
[32;1m[Board] [0m  -------------------
[32;1m[Board] [0m6 ||[7;1m [0m| |[30;1mk[0m| |[7;1m [0m| |[7;1m [0m| || 6
[32;1m[Board] [0m  -------------------
[32;1m[Board] [0m5 || |[7;1m [0m| |[7;1m [0m| |[7;1m [0m| |[7;1m [0m|| 5
[32;1m[Board] [0m  -------------------
[32;1m[Board] [0m4 ||[7;1m [0m|[0;1mp[0m|[7;1m [0m|[30;1mp[0m|[0;1mp[0m|[0;1mp[0m|[7;1m [0m| || 4
[32;1m[Board] [0m  -------------------
[32;1m[Board] [0m3 || |[7;1m [0m| |[7;1m [0m| |[7;1m [0m| |[7;1m [0m|| 3
[32;1m[Board] [0m  -------------------
[32;1m[Board] [0m2 ||[0;1mp[0m| |[0;1mp[0m| |[7;1m [0m| |[0;1mp[0m|[0;1mp[0m|| 2
[32;1m[Board] [0m  -------------------
[32;1m[Board] [0m1 ||[0;1mr[0m|[0;1mk[0m|[30;1mb[0m|[7;1m [0m|[0;1mK[0m|[0;1mb[0m|[0;1mk[0m|[0;1mr[0m|| 1
[32;1m[Board] [0m  -------------------
[32;1m[Board] [0m    a b c d e f g h
[32;1m[Board] [0m
[32;1m[Referee] [0mThis is the turn of the White player...
Input file: championship/lizzie-iii-git-gambit/history.csv
Output file: championship/lizzie-iii-git-gambit/move.csv
Turn of: white
Succesful move
e2e4
8 | R N B Q K B N R 
7 | P P P P P P P P 
6 | _ _ _ _ _ _ _ _ 
5 | _ _ _ _ _ _ _ _ 
4 | _ _ _ _ P _ _ _ 
3 | _ _ _ _ _ _ _ _ 
2 | P P P P _ P P P 
1 | R N B Q K B N R 
-------------------
  | A B C D E F G H 

Turn of: black
Succesful move
e7e5
8 | R N B Q K B N R 
7 | P P P P _ P P P 
6 | _ _ _ _ _ _ _ _ 
5 | _ _ _ _ P _ _ _ 
4 | _ _ _ _ P _ _ _ 
3 | _ _ _ _ _ _ _ _ 
2 | P P P P _ P P P 
1 | R N B Q K B N R 
-------------------
  | A B C D E F G H 

Turn of: white
Succesful move
d2d4
8 | R N B Q K B N R 
7 | P P P P _ P P P 
6 | _ _ _ _ _ _ _ _ 
5 | _ _ _ _ P _ _ _ 
4 | _ _ _ P P _ _ _ 
3 | _ _ _ _ _ _ _ _ 
2 | P P P _ _ P P P 
1 | R N B Q K B N R 
-------------------
  | A B C D E F G H 

Turn of: black
Succesful move
b8c6
8 | R _ B Q K B N R 
7 | P P P P _ P P P 
6 | _ _ N _ _ _ _ _ 
5 | _ _ _ _ P _ _ _ 
4 | _ _ _ P P _ _ _ 
3 | _ _ _ _ _ _ _ _ 
2 | P P P _ _ P P P 
1 | R N B Q K B N R 
-------------------
  | A B C D E F G H 

Turn of: white
Succesful move
d1f3
8 | R _ B Q K B N R 
7 | P P P P _ P P P 
6 | _ _ N _ _ _ _ _ 
5 | _ _ _ _ P _ _ _ 
4 | _ _ _ P P _ _ _ 
3 | _ _ _ _ _ Q _ _ 
2 | P P P _ _ P P P 
1 | R N B _ K B N R 
-------------------
  | A B C D E F G H 

Turn of: black
Succesful move
f8c5
8 | R _ B Q K _ N R 
7 | P P P P _ P P P 
6 | _ _ N _ _ _ _ _ 
5 | _ _ B _ P _ _ _ 
4 | _ _ _ P P _ _ _ 
3 | _ _ _ _ _ Q _ _ 
2 | P P P _ _ P P P 
1 | R N B _ K B N R 
-------------------
  | A B C D E F G H 

Turn of: white
Succesful move
f3a3
8 | R _ B Q K _ N R 
7 | P P P P _ P P P 
6 | _ _ N _ _ _ _ _ 
5 | _ _ B _ P _ _ _ 
4 | _ _ _ P P _ _ _ 
3 | Q _ _ _ _ _ _ _ 
2 | P P P _ _ P P P 
1 | R N B _ K B N R 
-------------------
  | A B C D E F G H 

Turn of: black
Succesful move
c5a3
8 | R _ B Q K _ N R 
7 | P P P P _ P P P 
6 | _ _ N _ _ _ _ _ 
5 | _ _ _ _ P _ _ _ 
4 | _ _ _ P P _ _ _ 
3 | B _ _ _ _ _ _ _ 
2 | P P P _ _ P P P 
1 | R N B _ K B N R 
-------------------
  | A B C D E F G H 

Turn of: white
Succesful move
f2f4
8 | R _ B Q K _ N R 
7 | P P P P _ P P P 
6 | _ _ N _ _ _ _ _ 
5 | _ _ _ _ P _ _ _ 
4 | _ _ _ P P P _ _ 
3 | B _ _ _ _ _ _ _ 
2 | P P P _ _ _ P P 
1 | R N B _ K B N R 
-------------------
  | A B C D E F G H 

Turn of: black
Succesful move
e5d4
8 | R _ B Q K _ N R 
7 | P P P P _ P P P 
6 | _ _ N _ _ _ _ _ 
5 | _ _ _ _ _ _ _ _ 
4 | _ _ _ P P P _ _ 
3 | B _ _ _ _ _ _ _ 
2 | P P P _ _ _ P P 
1 | R N B _ K B N R 
-------------------
  | A B C D E F G H 

Turn of: white
Succesful move
b2b4
8 | R _ B Q K _ N R 
7 | P P P P _ P P P 
6 | _ _ N _ _ _ _ _ 
5 | _ _ _ _ _ _ _ _ 
4 | _ P _ P P P _ _ 
3 | B _ _ _ _ _ _ _ 
2 | P _ P _ _ _ P P 
1 | R N B _ K B N R 
-------------------
  | A B C D E F G H 

Turn of: black
Succesful move
a3c1
8 | R _ B Q K _ N R 
7 | P P P P _ P P P 
6 | _ _ N _ _ _ _ _ 
5 | _ _ _ _ _ _ _ _ 
4 | _ P _ P P P _ _ 
3 | _ _ _ _ _ _ _ _ 
2 | P _ P _ _ _ P P 
1 | R N B _ K B N R 
-------------------
  | A B C D E F G H 

We are playing as White
Move history:
e2e4
e7e5
d2d4
b8c6
d1f3
f8c5
f3a3
c5a3
f2f4
e5d4
b2b4
a3c1
8 | R _ B Q K _ N R 
7 | P P P P _ P P P 
6 | _ _ N _ _ _ _ _ 
5 | _ _ _ _ _ _ _ _ 
4 | _ P _ P P P _ _ 
3 | _ _ _ _ _ _ _ _ 
2 | P _ P _ _ _ P P 
1 | R N B _ K B N R 
-------------------
  | A B C D E F G H 

It is white's turn to play.
AI's move: f1b5
Move written: f1b5
[32;1m[Game] [0mPlayer's error code: 0
[32;1m[Game] [0mChecking move validity...
[32;1m[Board] [0mInitializing board...
[32;1m[Board] [0mLoading history file `championship/lizzie-iii-git-gambit/history.csv`...
[32;1m[Board] [0mLoaded 12 move(s).
[32;1m[Board] [0mLoading move file `championship/lizzie-iii-git-gambit/move.csv`...
[32;1m[Board] [0mWhite player is playing f1 to b5.
[32;1m[Board] [0m
[32;1m[Board] [0m    a b c d e f g h 
[32;1m[Board] [0m  -------------------
[32;1m[Board] [0m8 ||[30;1mr[0m| |[30;1mb[0m|[30;1mQ[0m|[30;1mK[0m| |[30;1mk[0m|[30;1mr[0m|| 8
[32;1m[Board] [0m  -------------------
[32;1m[Board] [0m7 ||[30;1mp[0m|[30;1mp[0m|[30;1mp[0m|[30;1mp[0m| |[30;1mp[0m|[30;1mp[0m|[30;1mp[0m|| 7
[32;1m[Board] [0m  -------------------
[32;1m[Board] [0m6 ||[7;1m [0m| |[30;1mk[0m| |[7;1m [0m| |[7;1m [0m| || 6
[32;1m[Board] [0m  -------------------
[32;1m[Board] [0m5 || |[0;1mb[0m| |[7;1m [0m| |[7;1m [0m| |[7;1m [0m|| 5
[32;1m[Board] [0m  -------------------
[32;1m[Board] [0m4 ||[7;1m [0m|[0;1mp[0m|[7;1m [0m|[30;1mp[0m|[0;1mp[0m|[0;1mp[0m|[7;1m [0m| || 4
[32;1m[Board] [0m  -------------------
[32;1m[Board] [0m3 || |[7;1m [0m| |[7;1m [0m| |[7;1m [0m| |[7;1m [0m|| 3
[32;1m[Board] [0m  -------------------
[32;1m[Board] [0m2 ||[0;1mp[0m| |[0;1mp[0m| |[7;1m [0m| |[0;1mp[0m|[0;1mp[0m|| 2
[32;1m[Board] [0m  -------------------
[32;1m[Board] [0m1 ||[0;1mr[0m|[0;1mk[0m|[30;1mb[0m|[7;1m [0m|[0;1mK[0m|[7;1m [0m|[0;1mk[0m|[0;1mr[0m|| 1
[32;1m[Board] [0m  -------------------
[32;1m[Board] [0m    a b c d e f g h
[32;1m[Board] [0m
[32;1m[Referee] [0mThis is the turn of the Black player...

    a   b   c   d   e   f   g   h 
8 | r |   | b | q | k |   | n | r  | 8
7 | p | p | p | p |   | p | p | p  | 7
6 |   |   | n |   |   |   |   |    | 6
5 |   | B |   |   |   |   |   |    | 5
4 |   | P |   | p | P | P |   |    | 4
3 |   |   |   |   |   |   |   |    | 3
2 | P |   | P |   |   |   | P | P  | 2
1 | R | N | b |   | K |   | N | R  | 1
    a   b   c   d   e   f   g   h 

next move: c6b4

[32;1m[Game] [0mPlayer's error code: 0
[32;1m[Game] [0mChecking move validity...
[32;1m[Board] [0mInitializing board...
[32;1m[Board] [0mLoading history file `championship/lizzie-iii-git-gambit/history.csv`...
[32;1m[Board] [0mLoaded 13 move(s).
[32;1m[Board] [0mLoading move file `championship/lizzie-iii-git-gambit/move.csv`...
[32;1m[Board] [0mBlack player is playing c6 to b4.
[32;1m[Board] [0m[5;1mBlack Knight is taking White Pawn.[0m
[32;1m[Board] [0m
[32;1m[Board] [0m    a b c d e f g h 
[32;1m[Board] [0m  -------------------
[32;1m[Board] [0m8 ||[30;1mr[0m| |[30;1mb[0m|[30;1mQ[0m|[30;1mK[0m| |[30;1mk[0m|[30;1mr[0m|| 8
[32;1m[Board] [0m  -------------------
[32;1m[Board] [0m7 ||[30;1mp[0m|[30;1mp[0m|[30;1mp[0m|[30;1mp[0m| |[30;1mp[0m|[30;1mp[0m|[30;1mp[0m|| 7
[32;1m[Board] [0m  -------------------
[32;1m[Board] [0m6 ||[7;1m [0m| |[7;1m [0m| |[7;1m [0m| |[7;1m [0m| || 6
[32;1m[Board] [0m  -------------------
[32;1m[Board] [0m5 || |[0;1mb[0m| |[7;1m [0m| |[7;1m [0m| |[7;1m [0m|| 5
[32;1m[Board] [0m  -------------------
[32;1m[Board] [0m4 ||[7;1m [0m|[30;1mk[0m|[7;1m [0m|[30;1mp[0m|[0;1mp[0m|[0;1mp[0m|[7;1m [0m| || 4
[32;1m[Board] [0m  -------------------
[32;1m[Board] [0m3 || |[7;1m [0m| |[7;1m [0m| |[7;1m [0m| |[7;1m [0m|| 3
[32;1m[Board] [0m  -------------------
[32;1m[Board] [0m2 ||[0;1mp[0m| |[0;1mp[0m| |[7;1m [0m| |[0;1mp[0m|[0;1mp[0m|| 2
[32;1m[Board] [0m  -------------------
[32;1m[Board] [0m1 ||[0;1mr[0m|[0;1mk[0m|[30;1mb[0m|[7;1m [0m|[0;1mK[0m|[7;1m [0m|[0;1mk[0m|[0;1mr[0m|| 1
[32;1m[Board] [0m  -------------------
[32;1m[Board] [0m    a b c d e f g h
[32;1m[Board] [0m
[32;1m[Referee] [0mThis is the turn of the White player...
Input file: championship/lizzie-iii-git-gambit/history.csv
Output file: championship/lizzie-iii-git-gambit/move.csv
Turn of: white
Succesful move
e2e4
8 | R N B Q K B N R 
7 | P P P P P P P P 
6 | _ _ _ _ _ _ _ _ 
5 | _ _ _ _ _ _ _ _ 
4 | _ _ _ _ P _ _ _ 
3 | _ _ _ _ _ _ _ _ 
2 | P P P P _ P P P 
1 | R N B Q K B N R 
-------------------
  | A B C D E F G H 

Turn of: black
Succesful move
e7e5
8 | R N B Q K B N R 
7 | P P P P _ P P P 
6 | _ _ _ _ _ _ _ _ 
5 | _ _ _ _ P _ _ _ 
4 | _ _ _ _ P _ _ _ 
3 | _ _ _ _ _ _ _ _ 
2 | P P P P _ P P P 
1 | R N B Q K B N R 
-------------------
  | A B C D E F G H 

Turn of: white
Succesful move
d2d4
8 | R N B Q K B N R 
7 | P P P P _ P P P 
6 | _ _ _ _ _ _ _ _ 
5 | _ _ _ _ P _ _ _ 
4 | _ _ _ P P _ _ _ 
3 | _ _ _ _ _ _ _ _ 
2 | P P P _ _ P P P 
1 | R N B Q K B N R 
-------------------
  | A B C D E F G H 

Turn of: black
Succesful move
b8c6
8 | R _ B Q K B N R 
7 | P P P P _ P P P 
6 | _ _ N _ _ _ _ _ 
5 | _ _ _ _ P _ _ _ 
4 | _ _ _ P P _ _ _ 
3 | _ _ _ _ _ _ _ _ 
2 | P P P _ _ P P P 
1 | R N B Q K B N R 
-------------------
  | A B C D E F G H 

Turn of: white
Succesful move
d1f3
8 | R _ B Q K B N R 
7 | P P P P _ P P P 
6 | _ _ N _ _ _ _ _ 
5 | _ _ _ _ P _ _ _ 
4 | _ _ _ P P _ _ _ 
3 | _ _ _ _ _ Q _ _ 
2 | P P P _ _ P P P 
1 | R N B _ K B N R 
-------------------
  | A B C D E F G H 

Turn of: black
Succesful move
f8c5
8 | R _ B Q K _ N R 
7 | P P P P _ P P P 
6 | _ _ N _ _ _ _ _ 
5 | _ _ B _ P _ _ _ 
4 | _ _ _ P P _ _ _ 
3 | _ _ _ _ _ Q _ _ 
2 | P P P _ _ P P P 
1 | R N B _ K B N R 
-------------------
  | A B C D E F G H 

Turn of: white
Succesful move
f3a3
8 | R _ B Q K _ N R 
7 | P P P P _ P P P 
6 | _ _ N _ _ _ _ _ 
5 | _ _ B _ P _ _ _ 
4 | _ _ _ P P _ _ _ 
3 | Q _ _ _ _ _ _ _ 
2 | P P P _ _ P P P 
1 | R N B _ K B N R 
-------------------
  | A B C D E F G H 

Turn of: black
Succesful move
c5a3
8 | R _ B Q K _ N R 
7 | P P P P _ P P P 
6 | _ _ N _ _ _ _ _ 
5 | _ _ _ _ P _ _ _ 
4 | _ _ _ P P _ _ _ 
3 | B _ _ _ _ _ _ _ 
2 | P P P _ _ P P P 
1 | R N B _ K B N R 
-------------------
  | A B C D E F G H 

Turn of: white
Succesful move
f2f4
8 | R _ B Q K _ N R 
7 | P P P P _ P P P 
6 | _ _ N _ _ _ _ _ 
5 | _ _ _ _ P _ _ _ 
4 | _ _ _ P P P _ _ 
3 | B _ _ _ _ _ _ _ 
2 | P P P _ _ _ P P 
1 | R N B _ K B N R 
-------------------
  | A B C D E F G H 

Turn of: black
Succesful move
e5d4
8 | R _ B Q K _ N R 
7 | P P P P _ P P P 
6 | _ _ N _ _ _ _ _ 
5 | _ _ _ _ _ _ _ _ 
4 | _ _ _ P P P _ _ 
3 | B _ _ _ _ _ _ _ 
2 | P P P _ _ _ P P 
1 | R N B _ K B N R 
-------------------
  | A B C D E F G H 

Turn of: white
Succesful move
b2b4
8 | R _ B Q K _ N R 
7 | P P P P _ P P P 
6 | _ _ N _ _ _ _ _ 
5 | _ _ _ _ _ _ _ _ 
4 | _ P _ P P P _ _ 
3 | B _ _ _ _ _ _ _ 
2 | P _ P _ _ _ P P 
1 | R N B _ K B N R 
-------------------
  | A B C D E F G H 

Turn of: black
Succesful move
a3c1
8 | R _ B Q K _ N R 
7 | P P P P _ P P P 
6 | _ _ N _ _ _ _ _ 
5 | _ _ _ _ _ _ _ _ 
4 | _ P _ P P P _ _ 
3 | _ _ _ _ _ _ _ _ 
2 | P _ P _ _ _ P P 
1 | R N B _ K B N R 
-------------------
  | A B C D E F G H 

Turn of: white
Succesful move
f1b5
8 | R _ B Q K _ N R 
7 | P P P P _ P P P 
6 | _ _ N _ _ _ _ _ 
5 | _ B _ _ _ _ _ _ 
4 | _ P _ P P P _ _ 
3 | _ _ _ _ _ _ _ _ 
2 | P _ P _ _ _ P P 
1 | R N B _ K _ N R 
-------------------
  | A B C D E F G H 

Turn of: black
Succesful move
c6b4
8 | R _ B Q K _ N R 
7 | P P P P _ P P P 
6 | _ _ _ _ _ _ _ _ 
5 | _ B _ _ _ _ _ _ 
4 | _ N _ P P P _ _ 
3 | _ _ _ _ _ _ _ _ 
2 | P _ P _ _ _ P P 
1 | R N B _ K _ N R 
-------------------
  | A B C D E F G H 

We are playing as White
Move history:
e2e4
e7e5
d2d4
b8c6
d1f3
f8c5
f3a3
c5a3
f2f4
e5d4
b2b4
a3c1
f1b5
c6b4
8 | R _ B Q K _ N R 
7 | P P P P _ P P P 
6 | _ _ _ _ _ _ _ _ 
5 | _ B _ _ _ _ _ _ 
4 | _ N _ P P P _ _ 
3 | _ _ _ _ _ _ _ _ 
2 | P _ P _ _ _ P P 
1 | R N B _ K _ N R 
-------------------
  | A B C D E F G H 

It is white's turn to play.
AI's move: h2h3
Move written: h2h3
[32;1m[Game] [0mPlayer's error code: 0
[32;1m[Game] [0mChecking move validity...
[32;1m[Board] [0mInitializing board...
[32;1m[Board] [0mLoading history file `championship/lizzie-iii-git-gambit/history.csv`...
[32;1m[Board] [0mLoaded 14 move(s).
[32;1m[Board] [0mLoading move file `championship/lizzie-iii-git-gambit/move.csv`...
[32;1m[Board] [0mWhite player is playing h2 to h3.
[32;1m[Board] [0m
[32;1m[Board] [0m    a b c d e f g h 
[32;1m[Board] [0m  -------------------
[32;1m[Board] [0m8 ||[30;1mr[0m| |[30;1mb[0m|[30;1mQ[0m|[30;1mK[0m| |[30;1mk[0m|[30;1mr[0m|| 8
[32;1m[Board] [0m  -------------------
[32;1m[Board] [0m7 ||[30;1mp[0m|[30;1mp[0m|[30;1mp[0m|[30;1mp[0m| |[30;1mp[0m|[30;1mp[0m|[30;1mp[0m|| 7
[32;1m[Board] [0m  -------------------
[32;1m[Board] [0m6 ||[7;1m [0m| |[7;1m [0m| |[7;1m [0m| |[7;1m [0m| || 6
[32;1m[Board] [0m  -------------------
[32;1m[Board] [0m5 || |[0;1mb[0m| |[7;1m [0m| |[7;1m [0m| |[7;1m [0m|| 5
[32;1m[Board] [0m  -------------------
[32;1m[Board] [0m4 ||[7;1m [0m|[30;1mk[0m|[7;1m [0m|[30;1mp[0m|[0;1mp[0m|[0;1mp[0m|[7;1m [0m| || 4
[32;1m[Board] [0m  -------------------
[32;1m[Board] [0m3 || |[7;1m [0m| |[7;1m [0m| |[7;1m [0m| |[0;1mp[0m|| 3
[32;1m[Board] [0m  -------------------
[32;1m[Board] [0m2 ||[0;1mp[0m| |[0;1mp[0m| |[7;1m [0m| |[0;1mp[0m| || 2
[32;1m[Board] [0m  -------------------
[32;1m[Board] [0m1 ||[0;1mr[0m|[0;1mk[0m|[30;1mb[0m|[7;1m [0m|[0;1mK[0m|[7;1m [0m|[0;1mk[0m|[0;1mr[0m|| 1
[32;1m[Board] [0m  -------------------
[32;1m[Board] [0m    a b c d e f g h
[32;1m[Board] [0m
[32;1m[Referee] [0mThis is the turn of the Black player...

    a   b   c   d   e   f   g   h 
8 | r |   | b | q | k |   | n | r  | 8
7 | p | p | p | p |   | p | p | p  | 7
6 |   |   |   |   |   |   |   |    | 6
5 |   | B |   |   |   |   |   |    | 5
4 |   | n |   | p | P | P |   |    | 4
3 |   |   |   |   |   |   |   | P  | 3
2 | P |   | P |   |   |   | P |    | 2
1 | R | N | b |   | K |   | N | R  | 1
    a   b   c   d   e   f   g   h 

next move: b4c2

[32;1m[Game] [0mPlayer's error code: 0
[32;1m[Game] [0mChecking move validity...
[32;1m[Board] [0mInitializing board...
[32;1m[Board] [0mLoading history file `championship/lizzie-iii-git-gambit/history.csv`...
[32;1m[Board] [0mLoaded 15 move(s).
[32;1m[Board] [0mLoading move file `championship/lizzie-iii-git-gambit/move.csv`...
[32;1m[Board] [0mBlack player is playing b4 to c2.
[32;1m[Board] [0m[5;1mBlack Knight is taking White Pawn.[0m
[32;1m[Board] [0m
[32;1m[Board] [0m    a b c d e f g h 
[32;1m[Board] [0m  -------------------
[32;1m[Board] [0m8 ||[30;1mr[0m| |[30;1mb[0m|[30;1mQ[0m|[30;1mK[0m| |[30;1mk[0m|[30;1mr[0m|| 8
[32;1m[Board] [0m  -------------------
[32;1m[Board] [0m7 ||[30;1mp[0m|[30;1mp[0m|[30;1mp[0m|[30;1mp[0m| |[30;1mp[0m|[30;1mp[0m|[30;1mp[0m|| 7
[32;1m[Board] [0m  -------------------
[32;1m[Board] [0m6 ||[7;1m [0m| |[7;1m [0m| |[7;1m [0m| |[7;1m [0m| || 6
[32;1m[Board] [0m  -------------------
[32;1m[Board] [0m5 || |[0;1mb[0m| |[7;1m [0m| |[7;1m [0m| |[7;1m [0m|| 5
[32;1m[Board] [0m  -------------------
[32;1m[Board] [0m4 ||[7;1m [0m| |[7;1m [0m|[30;1mp[0m|[0;1mp[0m|[0;1mp[0m|[7;1m [0m| || 4
[32;1m[Board] [0m  -------------------
[32;1m[Board] [0m3 || |[7;1m [0m| |[7;1m [0m| |[7;1m [0m| |[0;1mp[0m|| 3
[32;1m[Board] [0m  -------------------
[32;1m[Board] [0m2 ||[0;1mp[0m| |[30;1mk[0m| |[7;1m [0m| |[0;1mp[0m| || 2
[32;1m[Board] [0m  -------------------
[32;1m[Board] [0m1 ||[0;1mr[0m|[0;1mk[0m|[30;1mb[0m|[7;1m [0m|[0;1mK[0m|[7;1m [0m|[0;1mk[0m|[0;1mr[0m|| 1
[32;1m[Board] [0m  -------------------
[32;1m[Board] [0m    a b c d e f g h
[32;1m[Board] [0m
[32;1m[Referee] [0mThis is the turn of the White player...
[32;1m[Board] [0m[33;1m[WARNING][0m [5;1mWhite King in check![0m
[32;1m[Board] [0m[33;1m[WARNING][0m    Threatened by Black Knight (c2)
Input file: championship/lizzie-iii-git-gambit/history.csv
Output file: championship/lizzie-iii-git-gambit/move.csv
Turn of: white
Succesful move
e2e4
8 | R N B Q K B N R 
7 | P P P P P P P P 
6 | _ _ _ _ _ _ _ _ 
5 | _ _ _ _ _ _ _ _ 
4 | _ _ _ _ P _ _ _ 
3 | _ _ _ _ _ _ _ _ 
2 | P P P P _ P P P 
1 | R N B Q K B N R 
-------------------
  | A B C D E F G H 

Turn of: black
Succesful move
e7e5
8 | R N B Q K B N R 
7 | P P P P _ P P P 
6 | _ _ _ _ _ _ _ _ 
5 | _ _ _ _ P _ _ _ 
4 | _ _ _ _ P _ _ _ 
3 | _ _ _ _ _ _ _ _ 
2 | P P P P _ P P P 
1 | R N B Q K B N R 
-------------------
  | A B C D E F G H 

Turn of: white
Succesful move
d2d4
8 | R N B Q K B N R 
7 | P P P P _ P P P 
6 | _ _ _ _ _ _ _ _ 
5 | _ _ _ _ P _ _ _ 
4 | _ _ _ P P _ _ _ 
3 | _ _ _ _ _ _ _ _ 
2 | P P P _ _ P P P 
1 | R N B Q K B N R 
-------------------
  | A B C D E F G H 

Turn of: black
Succesful move
b8c6
8 | R _ B Q K B N R 
7 | P P P P _ P P P 
6 | _ _ N _ _ _ _ _ 
5 | _ _ _ _ P _ _ _ 
4 | _ _ _ P P _ _ _ 
3 | _ _ _ _ _ _ _ _ 
2 | P P P _ _ P P P 
1 | R N B Q K B N R 
-------------------
  | A B C D E F G H 

Turn of: white
Succesful move
d1f3
8 | R _ B Q K B N R 
7 | P P P P _ P P P 
6 | _ _ N _ _ _ _ _ 
5 | _ _ _ _ P _ _ _ 
4 | _ _ _ P P _ _ _ 
3 | _ _ _ _ _ Q _ _ 
2 | P P P _ _ P P P 
1 | R N B _ K B N R 
-------------------
  | A B C D E F G H 

Turn of: black
Succesful move
f8c5
8 | R _ B Q K _ N R 
7 | P P P P _ P P P 
6 | _ _ N _ _ _ _ _ 
5 | _ _ B _ P _ _ _ 
4 | _ _ _ P P _ _ _ 
3 | _ _ _ _ _ Q _ _ 
2 | P P P _ _ P P P 
1 | R N B _ K B N R 
-------------------
  | A B C D E F G H 

Turn of: white
Succesful move
f3a3
8 | R _ B Q K _ N R 
7 | P P P P _ P P P 
6 | _ _ N _ _ _ _ _ 
5 | _ _ B _ P _ _ _ 
4 | _ _ _ P P _ _ _ 
3 | Q _ _ _ _ _ _ _ 
2 | P P P _ _ P P P 
1 | R N B _ K B N R 
-------------------
  | A B C D E F G H 

Turn of: black
Succesful move
c5a3
8 | R _ B Q K _ N R 
7 | P P P P _ P P P 
6 | _ _ N _ _ _ _ _ 
5 | _ _ _ _ P _ _ _ 
4 | _ _ _ P P _ _ _ 
3 | B _ _ _ _ _ _ _ 
2 | P P P _ _ P P P 
1 | R N B _ K B N R 
-------------------
  | A B C D E F G H 

Turn of: white
Succesful move
f2f4
8 | R _ B Q K _ N R 
7 | P P P P _ P P P 
6 | _ _ N _ _ _ _ _ 
5 | _ _ _ _ P _ _ _ 
4 | _ _ _ P P P _ _ 
3 | B _ _ _ _ _ _ _ 
2 | P P P _ _ _ P P 
1 | R N B _ K B N R 
-------------------
  | A B C D E F G H 

Turn of: black
Succesful move
e5d4
8 | R _ B Q K _ N R 
7 | P P P P _ P P P 
6 | _ _ N _ _ _ _ _ 
5 | _ _ _ _ _ _ _ _ 
4 | _ _ _ P P P _ _ 
3 | B _ _ _ _ _ _ _ 
2 | P P P _ _ _ P P 
1 | R N B _ K B N R 
-------------------
  | A B C D E F G H 

Turn of: white
Succesful move
b2b4
8 | R _ B Q K _ N R 
7 | P P P P _ P P P 
6 | _ _ N _ _ _ _ _ 
5 | _ _ _ _ _ _ _ _ 
4 | _ P _ P P P _ _ 
3 | B _ _ _ _ _ _ _ 
2 | P _ P _ _ _ P P 
1 | R N B _ K B N R 
-------------------
  | A B C D E F G H 

Turn of: black
Succesful move
a3c1
8 | R _ B Q K _ N R 
7 | P P P P _ P P P 
6 | _ _ N _ _ _ _ _ 
5 | _ _ _ _ _ _ _ _ 
4 | _ P _ P P P _ _ 
3 | _ _ _ _ _ _ _ _ 
2 | P _ P _ _ _ P P 
1 | R N B _ K B N R 
-------------------
  | A B C D E F G H 

Turn of: white
Succesful move
f1b5
8 | R _ B Q K _ N R 
7 | P P P P _ P P P 
6 | _ _ N _ _ _ _ _ 
5 | _ B _ _ _ _ _ _ 
4 | _ P _ P P P _ _ 
3 | _ _ _ _ _ _ _ _ 
2 | P _ P _ _ _ P P 
1 | R N B _ K _ N R 
-------------------
  | A B C D E F G H 

Turn of: black
Succesful move
c6b4
8 | R _ B Q K _ N R 
7 | P P P P _ P P P 
6 | _ _ _ _ _ _ _ _ 
5 | _ B _ _ _ _ _ _ 
4 | _ N _ P P P _ _ 
3 | _ _ _ _ _ _ _ _ 
2 | P _ P _ _ _ P P 
1 | R N B _ K _ N R 
-------------------
  | A B C D E F G H 

Turn of: white
Succesful move
h2h3
8 | R _ B Q K _ N R 
7 | P P P P _ P P P 
6 | _ _ _ _ _ _ _ _ 
5 | _ B _ _ _ _ _ _ 
4 | _ N _ P P P _ _ 
3 | _ _ _ _ _ _ _ P 
2 | P _ P _ _ _ P _ 
1 | R N B _ K _ N R 
-------------------
  | A B C D E F G H 

Turn of: black
Succesful move
b4c2
8 | R _ B Q K _ N R 
7 | P P P P _ P P P 
6 | _ _ _ _ _ _ _ _ 
5 | _ B _ _ _ _ _ _ 
4 | _ _ _ P P P _ _ 
3 | _ _ _ _ _ _ _ P 
2 | P _ N _ _ _ P _ 
1 | R N B _ K _ N R 
-------------------
  | A B C D E F G H 

We are playing as White
Move history:
e2e4
e7e5
d2d4
b8c6
d1f3
f8c5
f3a3
c5a3
f2f4
e5d4
b2b4
a3c1
f1b5
c6b4
h2h3
b4c2
8 | R _ B Q K _ N R 
7 | P P P P _ P P P 
6 | _ _ _ _ _ _ _ _ 
5 | _ B _ _ _ _ _ _ 
4 | _ _ _ P P P _ _ 
3 | _ _ _ _ _ _ _ P 
2 | P _ N _ _ _ P _ 
1 | R N B _ K _ N R 
-------------------
  | A B C D E F G H 

It is white's turn to play.
AI's move: e1d1
Move written: e1d1
[32;1m[Game] [0mPlayer's error code: 0
[32;1m[Game] [0mChecking move validity...
[32;1m[Board] [0mInitializing board...
[32;1m[Board] [0mLoading history file `championship/lizzie-iii-git-gambit/history.csv`...
[32;1m[Board] [0mLoaded 16 move(s).
[32;1m[Board] [0mLoading move file `championship/lizzie-iii-git-gambit/move.csv`...
[32;1m[Board] [0mWhite player is playing e1 to d1.
[32;1m[Board] [0m
[32;1m[Board] [0m    a b c d e f g h 
[32;1m[Board] [0m  -------------------
[32;1m[Board] [0m8 ||[30;1mr[0m| |[30;1mb[0m|[30;1mQ[0m|[30;1mK[0m| |[30;1mk[0m|[30;1mr[0m|| 8
[32;1m[Board] [0m  -------------------
[32;1m[Board] [0m7 ||[30;1mp[0m|[30;1mp[0m|[30;1mp[0m|[30;1mp[0m| |[30;1mp[0m|[30;1mp[0m|[30;1mp[0m|| 7
[32;1m[Board] [0m  -------------------
[32;1m[Board] [0m6 ||[7;1m [0m| |[7;1m [0m| |[7;1m [0m| |[7;1m [0m| || 6
[32;1m[Board] [0m  -------------------
[32;1m[Board] [0m5 || |[0;1mb[0m| |[7;1m [0m| |[7;1m [0m| |[7;1m [0m|| 5
[32;1m[Board] [0m  -------------------
[32;1m[Board] [0m4 ||[7;1m [0m| |[7;1m [0m|[30;1mp[0m|[0;1mp[0m|[0;1mp[0m|[7;1m [0m| || 4
[32;1m[Board] [0m  -------------------
[32;1m[Board] [0m3 || |[7;1m [0m| |[7;1m [0m| |[7;1m [0m| |[0;1mp[0m|| 3
[32;1m[Board] [0m  -------------------
[32;1m[Board] [0m2 ||[0;1mp[0m| |[30;1mk[0m| |[7;1m [0m| |[0;1mp[0m| || 2
[32;1m[Board] [0m  -------------------
[32;1m[Board] [0m1 ||[0;1mr[0m|[0;1mk[0m|[30;1mb[0m|[0;1mK[0m| |[7;1m [0m|[0;1mk[0m|[0;1mr[0m|| 1
[32;1m[Board] [0m  -------------------
[32;1m[Board] [0m    a b c d e f g h
[32;1m[Board] [0m
[32;1m[Referee] [0mThis is the turn of the Black player...

    a   b   c   d   e   f   g   h 
8 | r |   | b | q | k |   | n | r  | 8
7 | p | p | p | p |   | p | p | p  | 7
6 |   |   |   |   |   |   |   |    | 6
5 |   | B |   |   |   |   |   |    | 5
4 |   |   |   | p | P | P |   |    | 4
3 |   |   |   |   |   |   |   | P  | 3
2 | P |   | n |   |   |   | P |    | 2
1 | R | N | b | K |   |   | N | R  | 1
    a   b   c   d   e   f   g   h 

next move: c2a1

[32;1m[Game] [0mPlayer's error code: 0
[32;1m[Game] [0mChecking move validity...
[32;1m[Board] [0mInitializing board...
[32;1m[Board] [0mLoading history file `championship/lizzie-iii-git-gambit/history.csv`...
[32;1m[Board] [0mLoaded 17 move(s).
[32;1m[Board] [0mLoading move file `championship/lizzie-iii-git-gambit/move.csv`...
[32;1m[Board] [0mBlack player is playing c2 to a1.
[32;1m[Board] [0m[5;1mBlack Knight is taking White Rook.[0m
[32;1m[Board] [0m
[32;1m[Board] [0m    a b c d e f g h 
[32;1m[Board] [0m  -------------------
[32;1m[Board] [0m8 ||[30;1mr[0m| |[30;1mb[0m|[30;1mQ[0m|[30;1mK[0m| |[30;1mk[0m|[30;1mr[0m|| 8
[32;1m[Board] [0m  -------------------
[32;1m[Board] [0m7 ||[30;1mp[0m|[30;1mp[0m|[30;1mp[0m|[30;1mp[0m| |[30;1mp[0m|[30;1mp[0m|[30;1mp[0m|| 7
[32;1m[Board] [0m  -------------------
[32;1m[Board] [0m6 ||[7;1m [0m| |[7;1m [0m| |[7;1m [0m| |[7;1m [0m| || 6
[32;1m[Board] [0m  -------------------
[32;1m[Board] [0m5 || |[0;1mb[0m| |[7;1m [0m| |[7;1m [0m| |[7;1m [0m|| 5
[32;1m[Board] [0m  -------------------
[32;1m[Board] [0m4 ||[7;1m [0m| |[7;1m [0m|[30;1mp[0m|[0;1mp[0m|[0;1mp[0m|[7;1m [0m| || 4
[32;1m[Board] [0m  -------------------
[32;1m[Board] [0m3 || |[7;1m [0m| |[7;1m [0m| |[7;1m [0m| |[0;1mp[0m|| 3
[32;1m[Board] [0m  -------------------
[32;1m[Board] [0m2 ||[0;1mp[0m| |[7;1m [0m| |[7;1m [0m| |[0;1mp[0m| || 2
[32;1m[Board] [0m  -------------------
[32;1m[Board] [0m1 ||[30;1mk[0m|[0;1mk[0m|[30;1mb[0m|[0;1mK[0m| |[7;1m [0m|[0;1mk[0m|[0;1mr[0m|| 1
[32;1m[Board] [0m  -------------------
[32;1m[Board] [0m    a b c d e f g h
[32;1m[Board] [0m
[32;1m[Referee] [0mThis is the turn of the White player...
Input file: championship/lizzie-iii-git-gambit/history.csv
Output file: championship/lizzie-iii-git-gambit/move.csv
Turn of: white
Succesful move
e2e4
8 | R N B Q K B N R 
7 | P P P P P P P P 
6 | _ _ _ _ _ _ _ _ 
5 | _ _ _ _ _ _ _ _ 
4 | _ _ _ _ P _ _ _ 
3 | _ _ _ _ _ _ _ _ 
2 | P P P P _ P P P 
1 | R N B Q K B N R 
-------------------
  | A B C D E F G H 

Turn of: black
Succesful move
e7e5
8 | R N B Q K B N R 
7 | P P P P _ P P P 
6 | _ _ _ _ _ _ _ _ 
5 | _ _ _ _ P _ _ _ 
4 | _ _ _ _ P _ _ _ 
3 | _ _ _ _ _ _ _ _ 
2 | P P P P _ P P P 
1 | R N B Q K B N R 
-------------------
  | A B C D E F G H 

Turn of: white
Succesful move
d2d4
8 | R N B Q K B N R 
7 | P P P P _ P P P 
6 | _ _ _ _ _ _ _ _ 
5 | _ _ _ _ P _ _ _ 
4 | _ _ _ P P _ _ _ 
3 | _ _ _ _ _ _ _ _ 
2 | P P P _ _ P P P 
1 | R N B Q K B N R 
-------------------
  | A B C D E F G H 

Turn of: black
Succesful move
b8c6
8 | R _ B Q K B N R 
7 | P P P P _ P P P 
6 | _ _ N _ _ _ _ _ 
5 | _ _ _ _ P _ _ _ 
4 | _ _ _ P P _ _ _ 
3 | _ _ _ _ _ _ _ _ 
2 | P P P _ _ P P P 
1 | R N B Q K B N R 
-------------------
  | A B C D E F G H 

Turn of: white
Succesful move
d1f3
8 | R _ B Q K B N R 
7 | P P P P _ P P P 
6 | _ _ N _ _ _ _ _ 
5 | _ _ _ _ P _ _ _ 
4 | _ _ _ P P _ _ _ 
3 | _ _ _ _ _ Q _ _ 
2 | P P P _ _ P P P 
1 | R N B _ K B N R 
-------------------
  | A B C D E F G H 

Turn of: black
Succesful move
f8c5
8 | R _ B Q K _ N R 
7 | P P P P _ P P P 
6 | _ _ N _ _ _ _ _ 
5 | _ _ B _ P _ _ _ 
4 | _ _ _ P P _ _ _ 
3 | _ _ _ _ _ Q _ _ 
2 | P P P _ _ P P P 
1 | R N B _ K B N R 
-------------------
  | A B C D E F G H 

Turn of: white
Succesful move
f3a3
8 | R _ B Q K _ N R 
7 | P P P P _ P P P 
6 | _ _ N _ _ _ _ _ 
5 | _ _ B _ P _ _ _ 
4 | _ _ _ P P _ _ _ 
3 | Q _ _ _ _ _ _ _ 
2 | P P P _ _ P P P 
1 | R N B _ K B N R 
-------------------
  | A B C D E F G H 

Turn of: black
Succesful move
c5a3
8 | R _ B Q K _ N R 
7 | P P P P _ P P P 
6 | _ _ N _ _ _ _ _ 
5 | _ _ _ _ P _ _ _ 
4 | _ _ _ P P _ _ _ 
3 | B _ _ _ _ _ _ _ 
2 | P P P _ _ P P P 
1 | R N B _ K B N R 
-------------------
  | A B C D E F G H 

Turn of: white
Succesful move
f2f4
8 | R _ B Q K _ N R 
7 | P P P P _ P P P 
6 | _ _ N _ _ _ _ _ 
5 | _ _ _ _ P _ _ _ 
4 | _ _ _ P P P _ _ 
3 | B _ _ _ _ _ _ _ 
2 | P P P _ _ _ P P 
1 | R N B _ K B N R 
-------------------
  | A B C D E F G H 

Turn of: black
Succesful move
e5d4
8 | R _ B Q K _ N R 
7 | P P P P _ P P P 
6 | _ _ N _ _ _ _ _ 
5 | _ _ _ _ _ _ _ _ 
4 | _ _ _ P P P _ _ 
3 | B _ _ _ _ _ _ _ 
2 | P P P _ _ _ P P 
1 | R N B _ K B N R 
-------------------
  | A B C D E F G H 

Turn of: white
Succesful move
b2b4
8 | R _ B Q K _ N R 
7 | P P P P _ P P P 
6 | _ _ N _ _ _ _ _ 
5 | _ _ _ _ _ _ _ _ 
4 | _ P _ P P P _ _ 
3 | B _ _ _ _ _ _ _ 
2 | P _ P _ _ _ P P 
1 | R N B _ K B N R 
-------------------
  | A B C D E F G H 

Turn of: black
Succesful move
a3c1
8 | R _ B Q K _ N R 
7 | P P P P _ P P P 
6 | _ _ N _ _ _ _ _ 
5 | _ _ _ _ _ _ _ _ 
4 | _ P _ P P P _ _ 
3 | _ _ _ _ _ _ _ _ 
2 | P _ P _ _ _ P P 
1 | R N B _ K B N R 
-------------------
  | A B C D E F G H 

Turn of: white
Succesful move
f1b5
8 | R _ B Q K _ N R 
7 | P P P P _ P P P 
6 | _ _ N _ _ _ _ _ 
5 | _ B _ _ _ _ _ _ 
4 | _ P _ P P P _ _ 
3 | _ _ _ _ _ _ _ _ 
2 | P _ P _ _ _ P P 
1 | R N B _ K _ N R 
-------------------
  | A B C D E F G H 

Turn of: black
Succesful move
c6b4
8 | R _ B Q K _ N R 
7 | P P P P _ P P P 
6 | _ _ _ _ _ _ _ _ 
5 | _ B _ _ _ _ _ _ 
4 | _ N _ P P P _ _ 
3 | _ _ _ _ _ _ _ _ 
2 | P _ P _ _ _ P P 
1 | R N B _ K _ N R 
-------------------
  | A B C D E F G H 

Turn of: white
Succesful move
h2h3
8 | R _ B Q K _ N R 
7 | P P P P _ P P P 
6 | _ _ _ _ _ _ _ _ 
5 | _ B _ _ _ _ _ _ 
4 | _ N _ P P P _ _ 
3 | _ _ _ _ _ _ _ P 
2 | P _ P _ _ _ P _ 
1 | R N B _ K _ N R 
-------------------
  | A B C D E F G H 

Turn of: black
Succesful move
b4c2
8 | R _ B Q K _ N R 
7 | P P P P _ P P P 
6 | _ _ _ _ _ _ _ _ 
5 | _ B _ _ _ _ _ _ 
4 | _ _ _ P P P _ _ 
3 | _ _ _ _ _ _ _ P 
2 | P _ N _ _ _ P _ 
1 | R N B _ K _ N R 
-------------------
  | A B C D E F G H 

Turn of: white
Succesful move
e1d1
8 | R _ B Q K _ N R 
7 | P P P P _ P P P 
6 | _ _ _ _ _ _ _ _ 
5 | _ B _ _ _ _ _ _ 
4 | _ _ _ P P P _ _ 
3 | _ _ _ _ _ _ _ P 
2 | P _ N _ _ _ P _ 
1 | R N B K _ _ N R 
-------------------
  | A B C D E F G H 

Turn of: black
Succesful move
c2a1
8 | R _ B Q K _ N R 
7 | P P P P _ P P P 
6 | _ _ _ _ _ _ _ _ 
5 | _ B _ _ _ _ _ _ 
4 | _ _ _ P P P _ _ 
3 | _ _ _ _ _ _ _ P 
2 | P _ _ _ _ _ P _ 
1 | N N B K _ _ N R 
-------------------
  | A B C D E F G H 

We are playing as White
Move history:
e2e4
e7e5
d2d4
b8c6
d1f3
f8c5
f3a3
c5a3
f2f4
e5d4
b2b4
a3c1
f1b5
c6b4
h2h3
b4c2
e1d1
c2a1
8 | R _ B Q K _ N R 
7 | P P P P _ P P P 
6 | _ _ _ _ _ _ _ _ 
5 | _ B _ _ _ _ _ _ 
4 | _ _ _ P P P _ _ 
3 | _ _ _ _ _ _ _ P 
2 | P _ _ _ _ _ P _ 
1 | N N B K _ _ N R 
-------------------
  | A B C D E F G H 

It is white's turn to play.
AI's move: b5a4
Move written: b5a4
[32;1m[Game] [0mPlayer's error code: 0
[32;1m[Game] [0mChecking move validity...
[32;1m[Board] [0mInitializing board...
[32;1m[Board] [0mLoading history file `championship/lizzie-iii-git-gambit/history.csv`...
[32;1m[Board] [0mLoaded 18 move(s).
[32;1m[Board] [0mLoading move file `championship/lizzie-iii-git-gambit/move.csv`...
[32;1m[Board] [0mWhite player is playing b5 to a4.
[32;1m[Board] [0m
[32;1m[Board] [0m    a b c d e f g h 
[32;1m[Board] [0m  -------------------
[32;1m[Board] [0m8 ||[30;1mr[0m| |[30;1mb[0m|[30;1mQ[0m|[30;1mK[0m| |[30;1mk[0m|[30;1mr[0m|| 8
[32;1m[Board] [0m  -------------------
[32;1m[Board] [0m7 ||[30;1mp[0m|[30;1mp[0m|[30;1mp[0m|[30;1mp[0m| |[30;1mp[0m|[30;1mp[0m|[30;1mp[0m|| 7
[32;1m[Board] [0m  -------------------
[32;1m[Board] [0m6 ||[7;1m [0m| |[7;1m [0m| |[7;1m [0m| |[7;1m [0m| || 6
[32;1m[Board] [0m  -------------------
[32;1m[Board] [0m5 || |[7;1m [0m| |[7;1m [0m| |[7;1m [0m| |[7;1m [0m|| 5
[32;1m[Board] [0m  -------------------
[32;1m[Board] [0m4 ||[0;1mb[0m| |[7;1m [0m|[30;1mp[0m|[0;1mp[0m|[0;1mp[0m|[7;1m [0m| || 4
[32;1m[Board] [0m  -------------------
[32;1m[Board] [0m3 || |[7;1m [0m| |[7;1m [0m| |[7;1m [0m| |[0;1mp[0m|| 3
[32;1m[Board] [0m  -------------------
[32;1m[Board] [0m2 ||[0;1mp[0m| |[7;1m [0m| |[7;1m [0m| |[0;1mp[0m| || 2
[32;1m[Board] [0m  -------------------
[32;1m[Board] [0m1 ||[30;1mk[0m|[0;1mk[0m|[30;1mb[0m|[0;1mK[0m| |[7;1m [0m|[0;1mk[0m|[0;1mr[0m|| 1
[32;1m[Board] [0m  -------------------
[32;1m[Board] [0m    a b c d e f g h
[32;1m[Board] [0m
[32;1m[Referee] [0mThis is the turn of the Black player...

    a   b   c   d   e   f   g   h 
8 | r |   | b | q | k |   | n | r  | 8
7 | p | p | p | p |   | p | p | p  | 7
6 |   |   |   |   |   |   |   |    | 6
5 |   |   |   |   |   |   |   |    | 5
4 | B |   |   | p | P | P |   |    | 4
3 |   |   |   |   |   |   |   | P  | 3
2 | P |   |   |   |   |   | P |    | 2
1 | n | N | b | K |   |   | N | R  | 1
    a   b   c   d   e   f   g   h 

next move: c1f4

[32;1m[Game] [0mPlayer's error code: 0
[32;1m[Game] [0mChecking move validity...
[32;1m[Board] [0mInitializing board...
[32;1m[Board] [0mLoading history file `championship/lizzie-iii-git-gambit/history.csv`...
[32;1m[Board] [0mLoaded 19 move(s).
[32;1m[Board] [0mLoading move file `championship/lizzie-iii-git-gambit/move.csv`...
[32;1m[Board] [0mBlack player is playing c1 to f4.
[32;1m[Board] [0m[5;1mBlack Bishop is taking White Pawn.[0m
[32;1m[Board] [0m
[32;1m[Board] [0m    a b c d e f g h 
[32;1m[Board] [0m  -------------------
[32;1m[Board] [0m8 ||[30;1mr[0m| |[30;1mb[0m|[30;1mQ[0m|[30;1mK[0m| |[30;1mk[0m|[30;1mr[0m|| 8
[32;1m[Board] [0m  -------------------
[32;1m[Board] [0m7 ||[30;1mp[0m|[30;1mp[0m|[30;1mp[0m|[30;1mp[0m| |[30;1mp[0m|[30;1mp[0m|[30;1mp[0m|| 7
[32;1m[Board] [0m  -------------------
[32;1m[Board] [0m6 ||[7;1m [0m| |[7;1m [0m| |[7;1m [0m| |[7;1m [0m| || 6
[32;1m[Board] [0m  -------------------
[32;1m[Board] [0m5 || |[7;1m [0m| |[7;1m [0m| |[7;1m [0m| |[7;1m [0m|| 5
[32;1m[Board] [0m  -------------------
[32;1m[Board] [0m4 ||[0;1mb[0m| |[7;1m [0m|[30;1mp[0m|[0;1mp[0m|[30;1mb[0m|[7;1m [0m| || 4
[32;1m[Board] [0m  -------------------
[32;1m[Board] [0m3 || |[7;1m [0m| |[7;1m [0m| |[7;1m [0m| |[0;1mp[0m|| 3
[32;1m[Board] [0m  -------------------
[32;1m[Board] [0m2 ||[0;1mp[0m| |[7;1m [0m| |[7;1m [0m| |[0;1mp[0m| || 2
[32;1m[Board] [0m  -------------------
[32;1m[Board] [0m1 ||[30;1mk[0m|[0;1mk[0m| |[0;1mK[0m| |[7;1m [0m|[0;1mk[0m|[0;1mr[0m|| 1
[32;1m[Board] [0m  -------------------
[32;1m[Board] [0m    a b c d e f g h
[32;1m[Board] [0m
[32;1m[Referee] [0mThis is the turn of the White player...
Input file: championship/lizzie-iii-git-gambit/history.csv
Output file: championship/lizzie-iii-git-gambit/move.csv
Turn of: white
Succesful move
e2e4
8 | R N B Q K B N R 
7 | P P P P P P P P 
6 | _ _ _ _ _ _ _ _ 
5 | _ _ _ _ _ _ _ _ 
4 | _ _ _ _ P _ _ _ 
3 | _ _ _ _ _ _ _ _ 
2 | P P P P _ P P P 
1 | R N B Q K B N R 
-------------------
  | A B C D E F G H 

Turn of: black
Succesful move
e7e5
8 | R N B Q K B N R 
7 | P P P P _ P P P 
6 | _ _ _ _ _ _ _ _ 
5 | _ _ _ _ P _ _ _ 
4 | _ _ _ _ P _ _ _ 
3 | _ _ _ _ _ _ _ _ 
2 | P P P P _ P P P 
1 | R N B Q K B N R 
-------------------
  | A B C D E F G H 

Turn of: white
Succesful move
d2d4
8 | R N B Q K B N R 
7 | P P P P _ P P P 
6 | _ _ _ _ _ _ _ _ 
5 | _ _ _ _ P _ _ _ 
4 | _ _ _ P P _ _ _ 
3 | _ _ _ _ _ _ _ _ 
2 | P P P _ _ P P P 
1 | R N B Q K B N R 
-------------------
  | A B C D E F G H 

Turn of: black
Succesful move
b8c6
8 | R _ B Q K B N R 
7 | P P P P _ P P P 
6 | _ _ N _ _ _ _ _ 
5 | _ _ _ _ P _ _ _ 
4 | _ _ _ P P _ _ _ 
3 | _ _ _ _ _ _ _ _ 
2 | P P P _ _ P P P 
1 | R N B Q K B N R 
-------------------
  | A B C D E F G H 

Turn of: white
Succesful move
d1f3
8 | R _ B Q K B N R 
7 | P P P P _ P P P 
6 | _ _ N _ _ _ _ _ 
5 | _ _ _ _ P _ _ _ 
4 | _ _ _ P P _ _ _ 
3 | _ _ _ _ _ Q _ _ 
2 | P P P _ _ P P P 
1 | R N B _ K B N R 
-------------------
  | A B C D E F G H 

Turn of: black
Succesful move
f8c5
8 | R _ B Q K _ N R 
7 | P P P P _ P P P 
6 | _ _ N _ _ _ _ _ 
5 | _ _ B _ P _ _ _ 
4 | _ _ _ P P _ _ _ 
3 | _ _ _ _ _ Q _ _ 
2 | P P P _ _ P P P 
1 | R N B _ K B N R 
-------------------
  | A B C D E F G H 

Turn of: white
Succesful move
f3a3
8 | R _ B Q K _ N R 
7 | P P P P _ P P P 
6 | _ _ N _ _ _ _ _ 
5 | _ _ B _ P _ _ _ 
4 | _ _ _ P P _ _ _ 
3 | Q _ _ _ _ _ _ _ 
2 | P P P _ _ P P P 
1 | R N B _ K B N R 
-------------------
  | A B C D E F G H 

Turn of: black
Succesful move
c5a3
8 | R _ B Q K _ N R 
7 | P P P P _ P P P 
6 | _ _ N _ _ _ _ _ 
5 | _ _ _ _ P _ _ _ 
4 | _ _ _ P P _ _ _ 
3 | B _ _ _ _ _ _ _ 
2 | P P P _ _ P P P 
1 | R N B _ K B N R 
-------------------
  | A B C D E F G H 

Turn of: white
Succesful move
f2f4
8 | R _ B Q K _ N R 
7 | P P P P _ P P P 
6 | _ _ N _ _ _ _ _ 
5 | _ _ _ _ P _ _ _ 
4 | _ _ _ P P P _ _ 
3 | B _ _ _ _ _ _ _ 
2 | P P P _ _ _ P P 
1 | R N B _ K B N R 
-------------------
  | A B C D E F G H 

Turn of: black
Succesful move
e5d4
8 | R _ B Q K _ N R 
7 | P P P P _ P P P 
6 | _ _ N _ _ _ _ _ 
5 | _ _ _ _ _ _ _ _ 
4 | _ _ _ P P P _ _ 
3 | B _ _ _ _ _ _ _ 
2 | P P P _ _ _ P P 
1 | R N B _ K B N R 
-------------------
  | A B C D E F G H 

Turn of: white
Succesful move
b2b4
8 | R _ B Q K _ N R 
7 | P P P P _ P P P 
6 | _ _ N _ _ _ _ _ 
5 | _ _ _ _ _ _ _ _ 
4 | _ P _ P P P _ _ 
3 | B _ _ _ _ _ _ _ 
2 | P _ P _ _ _ P P 
1 | R N B _ K B N R 
-------------------
  | A B C D E F G H 

Turn of: black
Succesful move
a3c1
8 | R _ B Q K _ N R 
7 | P P P P _ P P P 
6 | _ _ N _ _ _ _ _ 
5 | _ _ _ _ _ _ _ _ 
4 | _ P _ P P P _ _ 
3 | _ _ _ _ _ _ _ _ 
2 | P _ P _ _ _ P P 
1 | R N B _ K B N R 
-------------------
  | A B C D E F G H 

Turn of: white
Succesful move
f1b5
8 | R _ B Q K _ N R 
7 | P P P P _ P P P 
6 | _ _ N _ _ _ _ _ 
5 | _ B _ _ _ _ _ _ 
4 | _ P _ P P P _ _ 
3 | _ _ _ _ _ _ _ _ 
2 | P _ P _ _ _ P P 
1 | R N B _ K _ N R 
-------------------
  | A B C D E F G H 

Turn of: black
Succesful move
c6b4
8 | R _ B Q K _ N R 
7 | P P P P _ P P P 
6 | _ _ _ _ _ _ _ _ 
5 | _ B _ _ _ _ _ _ 
4 | _ N _ P P P _ _ 
3 | _ _ _ _ _ _ _ _ 
2 | P _ P _ _ _ P P 
1 | R N B _ K _ N R 
-------------------
  | A B C D E F G H 

Turn of: white
Succesful move
h2h3
8 | R _ B Q K _ N R 
7 | P P P P _ P P P 
6 | _ _ _ _ _ _ _ _ 
5 | _ B _ _ _ _ _ _ 
4 | _ N _ P P P _ _ 
3 | _ _ _ _ _ _ _ P 
2 | P _ P _ _ _ P _ 
1 | R N B _ K _ N R 
-------------------
  | A B C D E F G H 

Turn of: black
Succesful move
b4c2
8 | R _ B Q K _ N R 
7 | P P P P _ P P P 
6 | _ _ _ _ _ _ _ _ 
5 | _ B _ _ _ _ _ _ 
4 | _ _ _ P P P _ _ 
3 | _ _ _ _ _ _ _ P 
2 | P _ N _ _ _ P _ 
1 | R N B _ K _ N R 
-------------------
  | A B C D E F G H 

Turn of: white
Succesful move
e1d1
8 | R _ B Q K _ N R 
7 | P P P P _ P P P 
6 | _ _ _ _ _ _ _ _ 
5 | _ B _ _ _ _ _ _ 
4 | _ _ _ P P P _ _ 
3 | _ _ _ _ _ _ _ P 
2 | P _ N _ _ _ P _ 
1 | R N B K _ _ N R 
-------------------
  | A B C D E F G H 

Turn of: black
Succesful move
c2a1
8 | R _ B Q K _ N R 
7 | P P P P _ P P P 
6 | _ _ _ _ _ _ _ _ 
5 | _ B _ _ _ _ _ _ 
4 | _ _ _ P P P _ _ 
3 | _ _ _ _ _ _ _ P 
2 | P _ _ _ _ _ P _ 
1 | N N B K _ _ N R 
-------------------
  | A B C D E F G H 

Turn of: white
Succesful move
b5a4
8 | R _ B Q K _ N R 
7 | P P P P _ P P P 
6 | _ _ _ _ _ _ _ _ 
5 | _ _ _ _ _ _ _ _ 
4 | B _ _ P P P _ _ 
3 | _ _ _ _ _ _ _ P 
2 | P _ _ _ _ _ P _ 
1 | N N B K _ _ N R 
-------------------
  | A B C D E F G H 

Turn of: black
Succesful move
c1f4
8 | R _ B Q K _ N R 
7 | P P P P _ P P P 
6 | _ _ _ _ _ _ _ _ 
5 | _ _ _ _ _ _ _ _ 
4 | B _ _ P P B _ _ 
3 | _ _ _ _ _ _ _ P 
2 | P _ _ _ _ _ P _ 
1 | N N _ K _ _ N R 
-------------------
  | A B C D E F G H 

We are playing as White
Move history:
e2e4
e7e5
d2d4
b8c6
d1f3
f8c5
f3a3
c5a3
f2f4
e5d4
b2b4
a3c1
f1b5
c6b4
h2h3
b4c2
e1d1
c2a1
b5a4
c1f4
8 | R _ B Q K _ N R 
7 | P P P P _ P P P 
6 | _ _ _ _ _ _ _ _ 
5 | _ _ _ _ _ _ _ _ 
4 | B _ _ P P B _ _ 
3 | _ _ _ _ _ _ _ P 
2 | P _ _ _ _ _ P _ 
1 | N N _ K _ _ N R 
-------------------
  | A B C D E F G H 

It is white's turn to play.
AI's move: a4b3
Move written: a4b3
[32;1m[Game] [0mPlayer's error code: 0
[32;1m[Game] [0mChecking move validity...
[32;1m[Board] [0mInitializing board...
[32;1m[Board] [0mLoading history file `championship/lizzie-iii-git-gambit/history.csv`...
[32;1m[Board] [0mLoaded 20 move(s).
[32;1m[Board] [0mLoading move file `championship/lizzie-iii-git-gambit/move.csv`...
[32;1m[Board] [0mWhite player is playing a4 to b3.
[32;1m[Board] [0m
[32;1m[Board] [0m    a b c d e f g h 
[32;1m[Board] [0m  -------------------
[32;1m[Board] [0m8 ||[30;1mr[0m| |[30;1mb[0m|[30;1mQ[0m|[30;1mK[0m| |[30;1mk[0m|[30;1mr[0m|| 8
[32;1m[Board] [0m  -------------------
[32;1m[Board] [0m7 ||[30;1mp[0m|[30;1mp[0m|[30;1mp[0m|[30;1mp[0m| |[30;1mp[0m|[30;1mp[0m|[30;1mp[0m|| 7
[32;1m[Board] [0m  -------------------
[32;1m[Board] [0m6 ||[7;1m [0m| |[7;1m [0m| |[7;1m [0m| |[7;1m [0m| || 6
[32;1m[Board] [0m  -------------------
[32;1m[Board] [0m5 || |[7;1m [0m| |[7;1m [0m| |[7;1m [0m| |[7;1m [0m|| 5
[32;1m[Board] [0m  -------------------
[32;1m[Board] [0m4 ||[7;1m [0m| |[7;1m [0m|[30;1mp[0m|[0;1mp[0m|[30;1mb[0m|[7;1m [0m| || 4
[32;1m[Board] [0m  -------------------
[32;1m[Board] [0m3 || |[0;1mb[0m| |[7;1m [0m| |[7;1m [0m| |[0;1mp[0m|| 3
[32;1m[Board] [0m  -------------------
[32;1m[Board] [0m2 ||[0;1mp[0m| |[7;1m [0m| |[7;1m [0m| |[0;1mp[0m| || 2
[32;1m[Board] [0m  -------------------
[32;1m[Board] [0m1 ||[30;1mk[0m|[0;1mk[0m| |[0;1mK[0m| |[7;1m [0m|[0;1mk[0m|[0;1mr[0m|| 1
[32;1m[Board] [0m  -------------------
[32;1m[Board] [0m    a b c d e f g h
[32;1m[Board] [0m
[32;1m[Referee] [0mThis is the turn of the Black player...

    a   b   c   d   e   f   g   h 
8 | r |   | b | q | k |   | n | r  | 8
7 | p | p | p | p |   | p | p | p  | 7
6 |   |   |   |   |   |   |   |    | 6
5 |   |   |   |   |   |   |   |    | 5
4 |   |   |   | p | P | b |   |    | 4
3 |   | B |   |   |   |   |   | P  | 3
2 | P |   |   |   |   |   | P |    | 2
1 | n | N |   | K |   |   | N | R  | 1
    a   b   c   d   e   f   g   h 

next move: a1b3

[32;1m[Game] [0mPlayer's error code: 0
[32;1m[Game] [0mChecking move validity...
[32;1m[Board] [0mInitializing board...
[32;1m[Board] [0mLoading history file `championship/lizzie-iii-git-gambit/history.csv`...
[32;1m[Board] [0mLoaded 21 move(s).
[32;1m[Board] [0mLoading move file `championship/lizzie-iii-git-gambit/move.csv`...
[32;1m[Board] [0mBlack player is playing a1 to b3.
[32;1m[Board] [0m[5;1mBlack Knight is taking White Bishop.[0m
[32;1m[Board] [0m
[32;1m[Board] [0m    a b c d e f g h 
[32;1m[Board] [0m  -------------------
[32;1m[Board] [0m8 ||[30;1mr[0m| |[30;1mb[0m|[30;1mQ[0m|[30;1mK[0m| |[30;1mk[0m|[30;1mr[0m|| 8
[32;1m[Board] [0m  -------------------
[32;1m[Board] [0m7 ||[30;1mp[0m|[30;1mp[0m|[30;1mp[0m|[30;1mp[0m| |[30;1mp[0m|[30;1mp[0m|[30;1mp[0m|| 7
[32;1m[Board] [0m  -------------------
[32;1m[Board] [0m6 ||[7;1m [0m| |[7;1m [0m| |[7;1m [0m| |[7;1m [0m| || 6
[32;1m[Board] [0m  -------------------
[32;1m[Board] [0m5 || |[7;1m [0m| |[7;1m [0m| |[7;1m [0m| |[7;1m [0m|| 5
[32;1m[Board] [0m  -------------------
[32;1m[Board] [0m4 ||[7;1m [0m| |[7;1m [0m|[30;1mp[0m|[0;1mp[0m|[30;1mb[0m|[7;1m [0m| || 4
[32;1m[Board] [0m  -------------------
[32;1m[Board] [0m3 || |[30;1mk[0m| |[7;1m [0m| |[7;1m [0m| |[0;1mp[0m|| 3
[32;1m[Board] [0m  -------------------
[32;1m[Board] [0m2 ||[0;1mp[0m| |[7;1m [0m| |[7;1m [0m| |[0;1mp[0m| || 2
[32;1m[Board] [0m  -------------------
[32;1m[Board] [0m1 || |[0;1mk[0m| |[0;1mK[0m| |[7;1m [0m|[0;1mk[0m|[0;1mr[0m|| 1
[32;1m[Board] [0m  -------------------
[32;1m[Board] [0m    a b c d e f g h
[32;1m[Board] [0m
[32;1m[Referee] [0mThis is the turn of the White player...
Input file: championship/lizzie-iii-git-gambit/history.csv
Output file: championship/lizzie-iii-git-gambit/move.csv
Turn of: white
Succesful move
e2e4
8 | R N B Q K B N R 
7 | P P P P P P P P 
6 | _ _ _ _ _ _ _ _ 
5 | _ _ _ _ _ _ _ _ 
4 | _ _ _ _ P _ _ _ 
3 | _ _ _ _ _ _ _ _ 
2 | P P P P _ P P P 
1 | R N B Q K B N R 
-------------------
  | A B C D E F G H 

Turn of: black
Succesful move
e7e5
8 | R N B Q K B N R 
7 | P P P P _ P P P 
6 | _ _ _ _ _ _ _ _ 
5 | _ _ _ _ P _ _ _ 
4 | _ _ _ _ P _ _ _ 
3 | _ _ _ _ _ _ _ _ 
2 | P P P P _ P P P 
1 | R N B Q K B N R 
-------------------
  | A B C D E F G H 

Turn of: white
Succesful move
d2d4
8 | R N B Q K B N R 
7 | P P P P _ P P P 
6 | _ _ _ _ _ _ _ _ 
5 | _ _ _ _ P _ _ _ 
4 | _ _ _ P P _ _ _ 
3 | _ _ _ _ _ _ _ _ 
2 | P P P _ _ P P P 
1 | R N B Q K B N R 
-------------------
  | A B C D E F G H 

Turn of: black
Succesful move
b8c6
8 | R _ B Q K B N R 
7 | P P P P _ P P P 
6 | _ _ N _ _ _ _ _ 
5 | _ _ _ _ P _ _ _ 
4 | _ _ _ P P _ _ _ 
3 | _ _ _ _ _ _ _ _ 
2 | P P P _ _ P P P 
1 | R N B Q K B N R 
-------------------
  | A B C D E F G H 

Turn of: white
Succesful move
d1f3
8 | R _ B Q K B N R 
7 | P P P P _ P P P 
6 | _ _ N _ _ _ _ _ 
5 | _ _ _ _ P _ _ _ 
4 | _ _ _ P P _ _ _ 
3 | _ _ _ _ _ Q _ _ 
2 | P P P _ _ P P P 
1 | R N B _ K B N R 
-------------------
  | A B C D E F G H 

Turn of: black
Succesful move
f8c5
8 | R _ B Q K _ N R 
7 | P P P P _ P P P 
6 | _ _ N _ _ _ _ _ 
5 | _ _ B _ P _ _ _ 
4 | _ _ _ P P _ _ _ 
3 | _ _ _ _ _ Q _ _ 
2 | P P P _ _ P P P 
1 | R N B _ K B N R 
-------------------
  | A B C D E F G H 

Turn of: white
Succesful move
f3a3
8 | R _ B Q K _ N R 
7 | P P P P _ P P P 
6 | _ _ N _ _ _ _ _ 
5 | _ _ B _ P _ _ _ 
4 | _ _ _ P P _ _ _ 
3 | Q _ _ _ _ _ _ _ 
2 | P P P _ _ P P P 
1 | R N B _ K B N R 
-------------------
  | A B C D E F G H 

Turn of: black
Succesful move
c5a3
8 | R _ B Q K _ N R 
7 | P P P P _ P P P 
6 | _ _ N _ _ _ _ _ 
5 | _ _ _ _ P _ _ _ 
4 | _ _ _ P P _ _ _ 
3 | B _ _ _ _ _ _ _ 
2 | P P P _ _ P P P 
1 | R N B _ K B N R 
-------------------
  | A B C D E F G H 

Turn of: white
Succesful move
f2f4
8 | R _ B Q K _ N R 
7 | P P P P _ P P P 
6 | _ _ N _ _ _ _ _ 
5 | _ _ _ _ P _ _ _ 
4 | _ _ _ P P P _ _ 
3 | B _ _ _ _ _ _ _ 
2 | P P P _ _ _ P P 
1 | R N B _ K B N R 
-------------------
  | A B C D E F G H 

Turn of: black
Succesful move
e5d4
8 | R _ B Q K _ N R 
7 | P P P P _ P P P 
6 | _ _ N _ _ _ _ _ 
5 | _ _ _ _ _ _ _ _ 
4 | _ _ _ P P P _ _ 
3 | B _ _ _ _ _ _ _ 
2 | P P P _ _ _ P P 
1 | R N B _ K B N R 
-------------------
  | A B C D E F G H 

Turn of: white
Succesful move
b2b4
8 | R _ B Q K _ N R 
7 | P P P P _ P P P 
6 | _ _ N _ _ _ _ _ 
5 | _ _ _ _ _ _ _ _ 
4 | _ P _ P P P _ _ 
3 | B _ _ _ _ _ _ _ 
[...]
e7e5
8 | R N B Q K B N R 
7 | P P P P _ P P P 
6 | _ _ _ _ _ _ _ _ 
5 | _ _ _ _ P _ _ _ 
4 | _ _ _ _ P _ _ _ 
3 | _ _ _ _ _ _ _ _ 
2 | P P P P _ P P P 
1 | R N B Q K B N R 
-------------------
  | A B C D E F G H 

Turn of: white
Succesful move
d2d4
8 | R N B Q K B N R 
7 | P P P P _ P P P 
6 | _ _ _ _ _ _ _ _ 
5 | _ _ _ _ P _ _ _ 
4 | _ _ _ P P _ _ _ 
3 | _ _ _ _ _ _ _ _ 
2 | P P P _ _ P P P 
1 | R N B Q K B N R 
-------------------
  | A B C D E F G H 

Turn of: black
Succesful move
b8c6
8 | R _ B Q K B N R 
7 | P P P P _ P P P 
6 | _ _ N _ _ _ _ _ 
5 | _ _ _ _ P _ _ _ 
4 | _ _ _ P P _ _ _ 
3 | _ _ _ _ _ _ _ _ 
2 | P P P _ _ P P P 
1 | R N B Q K B N R 
-------------------
  | A B C D E F G H 

Turn of: white
Succesful move
d1f3
8 | R _ B Q K B N R 
7 | P P P P _ P P P 
6 | _ _ N _ _ _ _ _ 
5 | _ _ _ _ P _ _ _ 
4 | _ _ _ P P _ _ _ 
3 | _ _ _ _ _ Q _ _ 
2 | P P P _ _ P P P 
1 | R N B _ K B N R 
-------------------
  | A B C D E F G H 

Turn of: black
Succesful move
f8c5
8 | R _ B Q K _ N R 
7 | P P P P _ P P P 
6 | _ _ N _ _ _ _ _ 
5 | _ _ B _ P _ _ _ 
4 | _ _ _ P P _ _ _ 
3 | _ _ _ _ _ Q _ _ 
2 | P P P _ _ P P P 
1 | R N B _ K B N R 
-------------------
  | A B C D E F G H 

Turn of: white
Succesful move
f3a3
8 | R _ B Q K _ N R 
7 | P P P P _ P P P 
6 | _ _ N _ _ _ _ _ 
5 | _ _ B _ P _ _ _ 
4 | _ _ _ P P _ _ _ 
3 | Q _ _ _ _ _ _ _ 
2 | P P P _ _ P P P 
1 | R N B _ K B N R 
-------------------
  | A B C D E F G H 

Turn of: black
Succesful move
c5a3
8 | R _ B Q K _ N R 
7 | P P P P _ P P P 
6 | _ _ N _ _ _ _ _ 
5 | _ _ _ _ P _ _ _ 
4 | _ _ _ P P _ _ _ 
3 | B _ _ _ _ _ _ _ 
2 | P P P _ _ P P P 
1 | R N B _ K B N R 
-------------------
  | A B C D E F G H 

Turn of: white
Succesful move
f2f4
8 | R _ B Q K _ N R 
7 | P P P P _ P P P 
6 | _ _ N _ _ _ _ _ 
5 | _ _ _ _ P _ _ _ 
4 | _ _ _ P P P _ _ 
3 | B _ _ _ _ _ _ _ 
2 | P P P _ _ _ P P 
1 | R N B _ K B N R 
-------------------
  | A B C D E F G H 

Turn of: black
Succesful move
e5d4
8 | R _ B Q K _ N R 
7 | P P P P _ P P P 
6 | _ _ N _ _ _ _ _ 
5 | _ _ _ _ _ _ _ _ 
4 | _ _ _ P P P _ _ 
3 | B _ _ _ _ _ _ _ 
2 | P P P _ _ _ P P 
1 | R N B _ K B N R 
-------------------
  | A B C D E F G H 

Turn of: white
Succesful move
b2b4
8 | R _ B Q K _ N R 
7 | P P P P _ P P P 
6 | _ _ N _ _ _ _ _ 
5 | _ _ _ _ _ _ _ _ 
4 | _ P _ P P P _ _ 
3 | B _ _ _ _ _ _ _ 
2 | P _ P _ _ _ P P 
1 | R N B _ K B N R 
-------------------
  | A B C D E F G H 

Turn of: black
Succesful move
a3c1
8 | R _ B Q K _ N R 
7 | P P P P _ P P P 
6 | _ _ N _ _ _ _ _ 
5 | _ _ _ _ _ _ _ _ 
4 | _ P _ P P P _ _ 
3 | _ _ _ _ _ _ _ _ 
2 | P _ P _ _ _ P P 
1 | R N B _ K B N R 
-------------------
  | A B C D E F G H 

Turn of: white
Succesful move
f1b5
8 | R _ B Q K _ N R 
7 | P P P P _ P P P 
6 | _ _ N _ _ _ _ _ 
5 | _ B _ _ _ _ _ _ 
4 | _ P _ P P P _ _ 
3 | _ _ _ _ _ _ _ _ 
2 | P _ P _ _ _ P P 
1 | R N B _ K _ N R 
-------------------
  | A B C D E F G H 

Turn of: black
Succesful move
c6b4
8 | R _ B Q K _ N R 
7 | P P P P _ P P P 
6 | _ _ _ _ _ _ _ _ 
5 | _ B _ _ _ _ _ _ 
4 | _ N _ P P P _ _ 
3 | _ _ _ _ _ _ _ _ 
2 | P _ P _ _ _ P P 
1 | R N B _ K _ N R 
-------------------
  | A B C D E F G H 

Turn of: white
Succesful move
h2h3
8 | R _ B Q K _ N R 
7 | P P P P _ P P P 
6 | _ _ _ _ _ _ _ _ 
5 | _ B _ _ _ _ _ _ 
4 | _ N _ P P P _ _ 
3 | _ _ _ _ _ _ _ P 
2 | P _ P _ _ _ P _ 
1 | R N B _ K _ N R 
-------------------
  | A B C D E F G H 

Turn of: black
Succesful move
b4c2
8 | R _ B Q K _ N R 
7 | P P P P _ P P P 
6 | _ _ _ _ _ _ _ _ 
5 | _ B _ _ _ _ _ _ 
4 | _ _ _ P P P _ _ 
3 | _ _ _ _ _ _ _ P 
2 | P _ N _ _ _ P _ 
1 | R N B _ K _ N R 
-------------------
  | A B C D E F G H 

Turn of: white
Succesful move
e1d1
8 | R _ B Q K _ N R 
7 | P P P P _ P P P 
6 | _ _ _ _ _ _ _ _ 
5 | _ B _ _ _ _ _ _ 
4 | _ _ _ P P P _ _ 
3 | _ _ _ _ _ _ _ P 
2 | P _ N _ _ _ P _ 
1 | R N B K _ _ N R 
-------------------
  | A B C D E F G H 

Turn of: black
Succesful move
c2a1
8 | R _ B Q K _ N R 
7 | P P P P _ P P P 
6 | _ _ _ _ _ _ _ _ 
5 | _ B _ _ _ _ _ _ 
4 | _ _ _ P P P _ _ 
3 | _ _ _ _ _ _ _ P 
2 | P _ _ _ _ _ P _ 
1 | N N B K _ _ N R 
-------------------
  | A B C D E F G H 

Turn of: white
Succesful move
b5a4
8 | R _ B Q K _ N R 
7 | P P P P _ P P P 
6 | _ _ _ _ _ _ _ _ 
5 | _ _ _ _ _ _ _ _ 
4 | B _ _ P P P _ _ 
3 | _ _ _ _ _ _ _ P 
2 | P _ _ _ _ _ P _ 
1 | N N B K _ _ N R 
-------------------
  | A B C D E F G H 

Turn of: black
Succesful move
c1f4
8 | R _ B Q K _ N R 
7 | P P P P _ P P P 
6 | _ _ _ _ _ _ _ _ 
5 | _ _ _ _ _ _ _ _ 
4 | B _ _ P P B _ _ 
3 | _ _ _ _ _ _ _ P 
2 | P _ _ _ _ _ P _ 
1 | N N _ K _ _ N R 
-------------------
  | A B C D E F G H 

Turn of: white
Succesful move
a4b3
8 | R _ B Q K _ N R 
7 | P P P P _ P P P 
6 | _ _ _ _ _ _ _ _ 
5 | _ _ _ _ _ _ _ _ 
4 | _ _ _ P P B _ _ 
3 | _ B _ _ _ _ _ P 
2 | P _ _ _ _ _ P _ 
1 | N N _ K _ _ N R 
-------------------
  | A B C D E F G H 

Turn of: black
Succesful move
a1b3
8 | R _ B Q K _ N R 
7 | P P P P _ P P P 
6 | _ _ _ _ _ _ _ _ 
5 | _ _ _ _ _ _ _ _ 
4 | _ _ _ P P B _ _ 
3 | _ N _ _ _ _ _ P 
2 | P _ _ _ _ _ P _ 
1 | _ N _ K _ _ N R 
-------------------
  | A B C D E F G H 

Turn of: white
Succesful move
a2b3
8 | R _ B Q K _ N R 
7 | P P P P _ P P P 
6 | _ _ _ _ _ _ _ _ 
5 | _ _ _ _ _ _ _ _ 
4 | _ _ _ P P B _ _ 
3 | _ P _ _ _ _ _ P 
2 | _ _ _ _ _ _ P _ 
1 | _ N _ K _ _ N R 
-------------------
  | A B C D E F G H 

Turn of: black
Succesful move
a7a5
8 | R _ B Q K _ N R 
7 | _ P P P _ P P P 
6 | _ _ _ _ _ _ _ _ 
5 | P _ _ _ _ _ _ _ 
4 | _ _ _ P P B _ _ 
3 | _ P _ _ _ _ _ P 
2 | _ _ _ _ _ _ P _ 
1 | _ N _ K _ _ N R 
-------------------
  | A B C D E F G H 

Turn of: white
Succesful move
d1e1
8 | R _ B Q K _ N R 
7 | _ P P P _ P P P 
6 | _ _ _ _ _ _ _ _ 
5 | P _ _ _ _ _ _ _ 
4 | _ _ _ P P B _ _ 
3 | _ P _ _ _ _ _ P 
2 | _ _ _ _ _ _ P _ 
1 | _ N _ _ K _ N R 
-------------------
  | A B C D E F G H 

Turn of: black
Succesful move
f4c1
8 | R _ B Q K _ N R 
7 | _ P P P _ P P P 
6 | _ _ _ _ _ _ _ _ 
5 | P _ _ _ _ _ _ _ 
4 | _ _ _ P P _ _ _ 
3 | _ P _ _ _ _ _ P 
2 | _ _ _ _ _ _ P _ 
1 | _ N B _ K _ N R 
-------------------
  | A B C D E F G H 

Turn of: white
Succesful move
b1c3
8 | R _ B Q K _ N R 
7 | _ P P P _ P P P 
6 | _ _ _ _ _ _ _ _ 
5 | P _ _ _ _ _ _ _ 
4 | _ _ _ P P _ _ _ 
3 | _ P N _ _ _ _ P 
2 | _ _ _ _ _ _ P _ 
1 | _ _ B _ K _ N R 
-------------------
  | A B C D E F G H 

Turn of: black
Succesful move
d4c3
8 | R _ B Q K _ N R 
7 | _ P P P _ P P P 
6 | _ _ _ _ _ _ _ _ 
5 | P _ _ _ _ _ _ _ 
4 | _ _ _ _ P _ _ _ 
3 | _ P P _ _ _ _ P 
2 | _ _ _ _ _ _ P _ 
1 | _ _ B _ K _ N R 
-------------------
  | A B C D E F G H 

Turn of: white
Succesful move
e1f2
8 | R _ B Q K _ N R 
7 | _ P P P _ P P P 
6 | _ _ _ _ _ _ _ _ 
5 | P _ _ _ _ _ _ _ 
4 | _ _ _ _ P _ _ _ 
3 | _ P P _ _ _ _ P 
2 | _ _ _ _ _ K P _ 
1 | _ _ B _ _ _ N R 
-------------------
  | A B C D E F G H 

Turn of: black
Succesful move
a8b8
8 | _ R B Q K _ N R 
7 | _ P P P _ P P P 
6 | _ _ _ _ _ _ _ _ 
5 | P _ _ _ _ _ _ _ 
4 | _ _ _ _ P _ _ _ 
3 | _ P P _ _ _ _ P 
2 | _ _ _ _ _ K P _ 
1 | _ _ B _ _ _ N R 
-------------------
  | A B C D E F G H 

Turn of: white
Succesful move
f2f3
8 | _ R B Q K _ N R 
7 | _ P P P _ P P P 
6 | _ _ _ _ _ _ _ _ 
5 | P _ _ _ _ _ _ _ 
4 | _ _ _ _ P _ _ _ 
3 | _ P P _ _ K _ P 
2 | _ _ _ _ _ _ P _ 
1 | _ _ B _ _ _ N R 
-------------------
  | A B C D E F G H 

Turn of: black
Succesful move
c1h6
8 | _ R B Q K _ N R 
7 | _ P P P _ P P P 
6 | _ _ _ _ _ _ _ B 
5 | P _ _ _ _ _ _ _ 
4 | _ _ _ _ P _ _ _ 
3 | _ P P _ _ K _ P 
2 | _ _ _ _ _ _ P _ 
1 | _ _ _ _ _ _ N R 
-------------------
  | A B C D E F G H 

Turn of: white
Succesful move
g1e2
8 | _ R B Q K _ N R 
7 | _ P P P _ P P P 
6 | _ _ _ _ _ _ _ B 
5 | P _ _ _ _ _ _ _ 
4 | _ _ _ _ P _ _ _ 
3 | _ P P _ _ K _ P 
2 | _ _ _ _ N _ P _ 
1 | _ _ _ _ _ _ _ R 
-------------------
  | A B C D E F G H 

Turn of: black
Succesful move
d7d5
8 | _ R B Q K _ N R 
7 | _ P P _ _ P P P 
6 | _ _ _ _ _ _ _ B 
5 | P _ _ P _ _ _ _ 
4 | _ _ _ _ P _ _ _ 
3 | _ P P _ _ K _ P 
2 | _ _ _ _ N _ P _ 
1 | _ _ _ _ _ _ _ R 
-------------------
  | A B C D E F G H 

Turn of: white
Succesful move
b3b4
8 | _ R B Q K _ N R 
7 | _ P P _ _ P P P 
6 | _ _ _ _ _ _ _ B 
5 | P _ _ P _ _ _ _ 
4 | _ P _ _ P _ _ _ 
3 | _ _ P _ _ K _ P 
2 | _ _ _ _ N _ P _ 
1 | _ _ _ _ _ _ _ R 
-------------------
  | A B C D E F G H 

Turn of: black
Succesful move
a5b4
8 | _ R B Q K _ N R 
7 | _ P P _ _ P P P 
6 | _ _ _ _ _ _ _ B 
5 | _ _ _ P _ _ _ _ 
4 | _ P _ _ P _ _ _ 
3 | _ _ P _ _ K _ P 
2 | _ _ _ _ N _ P _ 
1 | _ _ _ _ _ _ _ R 
-------------------
  | A B C D E F G H 

Turn of: white
Succesful move
h1b1
8 | _ R B Q K _ N R 
7 | _ P P _ _ P P P 
6 | _ _ _ _ _ _ _ B 
5 | _ _ _ P _ _ _ _ 
4 | _ P _ _ P _ _ _ 
3 | _ _ P _ _ K _ P 
2 | _ _ _ _ N _ P _ 
1 | _ R _ _ _ _ _ _ 
-------------------
  | A B C D E F G H 

Turn of: black
Succesful move
d5e4
8 | _ R B Q K _ N R 
7 | _ P P _ _ P P P 
6 | _ _ _ _ _ _ _ B 
5 | _ _ _ _ _ _ _ _ 
4 | _ P _ _ P _ _ _ 
3 | _ _ P _ _ K _ P 
2 | _ _ _ _ N _ P _ 
1 | _ R _ _ _ _ _ _ 
-------------------
  | A B C D E F G H 

Turn of: white
Succesful move
f3g3
8 | _ R B Q K _ N R 
7 | _ P P _ _ P P P 
6 | _ _ _ _ _ _ _ B 
5 | _ _ _ _ _ _ _ _ 
4 | _ P _ _ P _ _ _ 
3 | _ _ P _ _ _ K P 
2 | _ _ _ _ N _ P _ 
1 | _ R _ _ _ _ _ _ 
-------------------
  | A B C D E F G H 

Turn of: black
Succesful move
c8h3
8 | _ R _ Q K _ N R 
7 | _ P P _ _ P P P 
6 | _ _ _ _ _ _ _ B 
5 | _ _ _ _ _ _ _ _ 
4 | _ P _ _ P _ _ _ 
3 | _ _ P _ _ _ K B 
2 | _ _ _ _ N _ P _ 
1 | _ R _ _ _ _ _ _ 
-------------------
  | A B C D E F G H 

Turn of: white
Succesful move
b1e1
8 | _ R _ Q K _ N R 
7 | _ P P _ _ P P P 
6 | _ _ _ _ _ _ _ B 
5 | _ _ _ _ _ _ _ _ 
4 | _ P _ _ P _ _ _ 
3 | _ _ P _ _ _ K B 
2 | _ _ _ _ N _ P _ 
1 | _ _ _ _ R _ _ _ 
-------------------
  | A B C D E F G H 

Turn of: black
Succesful move
h3g2
8 | _ R _ Q K _ N R 
7 | _ P P _ _ P P P 
6 | _ _ _ _ _ _ _ B 
5 | _ _ _ _ _ _ _ _ 
4 | _ P _ _ P _ _ _ 
3 | _ _ P _ _ _ K _ 
2 | _ _ _ _ N _ B _ 
1 | _ _ _ _ R _ _ _ 
-------------------
  | A B C D E F G H 

Turn of: white
Succesful move
g3g2
8 | _ R _ Q K _ N R 
7 | _ P P _ _ P P P 
6 | _ _ _ _ _ _ _ B 
5 | _ _ _ _ _ _ _ _ 
4 | _ P _ _ P _ _ _ 
3 | _ _ P _ _ _ _ _ 
2 | _ _ _ _ N _ K _ 
1 | _ _ _ _ R _ _ _ 
-------------------
  | A B C D E F G H 

Turn of: black
Succesful move
g8f6
8 | _ R _ Q K _ _ R 
7 | _ P P _ _ P P P 
6 | _ _ _ _ _ N _ B 
5 | _ _ _ _ _ _ _ _ 
4 | _ P _ _ P _ _ _ 
3 | _ _ P _ _ _ _ _ 
2 | _ _ _ _ N _ K _ 
1 | _ _ _ _ R _ _ _ 
-------------------
  | A B C D E F G H 

Turn of: white
Succesful move
e2d4
8 | _ R _ Q K _ _ R 
7 | _ P P _ _ P P P 
6 | _ _ _ _ _ N _ B 
5 | _ _ _ _ _ _ _ _ 
4 | _ P _ N P _ _ _ 
3 | _ _ P _ _ _ _ _ 
2 | _ _ _ _ _ _ K _ 
1 | _ _ _ _ R _ _ _ 
-------------------
  | A B C D E F G H 

Turn of: black
Succesful move
d8d4
8 | _ R _ _ K _ _ R 
7 | _ P P _ _ P P P 
6 | _ _ _ _ _ N _ B 
5 | _ _ _ _ _ _ _ _ 
4 | _ P _ Q P _ _ _ 
3 | _ _ P _ _ _ _ _ 
2 | _ _ _ _ _ _ K _ 
1 | _ _ _ _ R _ _ _ 
-------------------
  | A B C D E F G H 

Turn of: white
Succesful move
e1d1
8 | _ R _ _ K _ _ R 
7 | _ P P _ _ P P P 
6 | _ _ _ _ _ N _ B 
5 | _ _ _ _ _ _ _ _ 
4 | _ P _ Q P _ _ _ 
3 | _ _ P _ _ _ _ _ 
2 | _ _ _ _ _ _ K _ 
1 | _ _ _ R _ _ _ _ 
-------------------
  | A B C D E F G H 

Turn of: black
Succesful move
d4d1
8 | _ R _ _ K _ _ R 
7 | _ P P _ _ P P P 
6 | _ _ _ _ _ N _ B 
5 | _ _ _ _ _ _ _ _ 
4 | _ P _ _ P _ _ _ 
3 | _ _ P _ _ _ _ _ 
2 | _ _ _ _ _ _ K _ 
1 | _ _ _ Q _ _ _ _ 
-------------------
  | A B C D E F G H 

Turn of: white
Succesful move
g2f2
8 | _ R _ _ K _ _ R 
7 | _ P P _ _ P P P 
6 | _ _ _ _ _ N _ B 
5 | _ _ _ _ _ _ _ _ 
4 | _ P _ _ P _ _ _ 
3 | _ _ P _ _ _ _ _ 
2 | _ _ _ _ _ K _ _ 
1 | _ _ _ Q _ _ _ _ 
-------------------
  | A B C D E F G H 

Turn of: black
Succesful move
f6g8
8 | _ R _ _ K _ N R 
7 | _ P P _ _ P P P 
6 | _ _ _ _ _ _ _ B 
5 | _ _ _ _ _ _ _ _ 
4 | _ P _ _ P _ _ _ 
3 | _ _ P _ _ _ _ _ 
2 | _ _ _ _ _ K _ _ 
1 | _ _ _ Q _ _ _ _ 
-------------------
  | A B C D E F G H 

Turn of: white
Succesful move
f2g3
8 | _ R _ _ K _ N R 
7 | _ P P _ _ P P P 
6 | _ _ _ _ _ _ _ B 
5 | _ _ _ _ _ _ _ _ 
4 | _ P _ _ P _ _ _ 
3 | _ _ P _ _ _ K _ 
2 | _ _ _ _ _ _ _ _ 
1 | _ _ _ Q _ _ _ _ 
-------------------
  | A B C D E F G H 

Turn of: black
Succesful move
f7f5
8 | _ R _ _ K _ N R 
7 | _ P P _ _ _ P P 
6 | _ _ _ _ _ _ _ B 
5 | _ _ _ _ _ P _ _ 
4 | _ P _ _ P _ _ _ 
3 | _ _ P _ _ _ K _ 
2 | _ _ _ _ _ _ _ _ 
1 | _ _ _ Q _ _ _ _ 
-------------------
  | A B C D E F G H 

Turn of: white
Succesful move
g3h2
8 | _ R _ _ K _ N R 
7 | _ P P _ _ _ P P 
6 | _ _ _ _ _ _ _ B 
5 | _ _ _ _ _ P _ _ 
4 | _ P _ _ P _ _ _ 
3 | _ _ P _ _ _ _ _ 
2 | _ _ _ _ _ _ _ K 
1 | _ _ _ Q _ _ _ _ 
-------------------
  | A B C D E F G H 

Turn of: black
Succesful move
d1g4
8 | _ R _ _ K _ N R 
7 | _ P P _ _ _ P P 
6 | _ _ _ _ _ _ _ B 
5 | _ _ _ _ _ P _ _ 
4 | _ P _ _ P _ Q _ 
3 | _ _ P _ _ _ _ _ 
2 | _ _ _ _ _ _ _ K 
1 | _ _ _ _ _ _ _ _ 
-------------------
  | A B C D E F G H 

Turn of: white
Succesful move
h2h1
8 | _ R _ _ K _ N R 
7 | _ P P _ _ _ P P 
6 | _ _ _ _ _ _ _ B 
5 | _ _ _ _ _ P _ _ 
4 | _ P _ _ P _ Q _ 
3 | _ _ P _ _ _ _ _ 
2 | _ _ _ _ _ _ _ _ 
1 | _ _ _ _ _ _ _ K 
-------------------
  | A B C D E F G H 

Turn of: black
Succesful move
e4e3
8 | _ R _ _ K _ N R 
7 | _ P P _ _ _ P P 
6 | _ _ _ _ _ _ _ B 
5 | _ _ _ _ _ P _ _ 
4 | _ P _ _ _ _ Q _ 
3 | _ _ P _ P _ _ _ 
2 | _ _ _ _ _ _ _ _ 
1 | _ _ _ _ _ _ _ K 
-------------------
  | A B C D E F G H 

Turn of: white
Succesful move
h1h2
8 | _ R _ _ K _ N R 
7 | _ P P _ _ _ P P 
6 | _ _ _ _ _ _ _ B 
5 | _ _ _ _ _ P _ _ 
4 | _ P _ _ _ _ Q _ 
3 | _ _ P _ P _ _ _ 
2 | _ _ _ _ _ _ _ K 
1 | _ _ _ _ _ _ _ _ 
-------------------
  | A B C D E F G H 

Turn of: black
Succesful move
b7b5
8 | _ R _ _ K _ N R 
7 | _ _ P _ _ _ P P 
6 | _ _ _ _ _ _ _ B 
5 | _ P _ _ _ P _ _ 
4 | _ P _ _ _ _ Q _ 
3 | _ _ P _ P _ _ _ 
2 | _ _ _ _ _ _ _ K 
1 | _ _ _ _ _ _ _ _ 
-------------------
  | A B C D E F G H 

Turn of: white
Succesful move
h2h1
8 | _ R _ _ K _ N R 
7 | _ _ P _ _ _ P P 
6 | _ _ _ _ _ _ _ B 
5 | _ P _ _ _ P _ _ 
4 | _ P _ _ _ _ Q _ 
3 | _ _ P _ P _ _ _ 
2 | _ _ _ _ _ _ _ _ 
1 | _ _ _ _ _ _ _ K 
-------------------
  | A B C D E F G H 

Turn of: black
Succesful move
h6g5
8 | _ R _ _ K _ N R 
7 | _ _ P _ _ _ P P 
6 | _ _ _ _ _ _ _ _ 
5 | _ P _ _ _ P B _ 
4 | _ P _ _ _ _ Q _ 
3 | _ _ P _ P _ _ _ 
2 | _ _ _ _ _ _ _ _ 
1 | _ _ _ _ _ _ _ K 
-------------------
  | A B C D E F G H 

Turn of: white
Succesful move
h1h2
8 | _ R _ _ K _ N R 
7 | _ _ P _ _ _ P P 
6 | _ _ _ _ _ _ _ _ 
5 | _ P _ _ _ P B _ 
4 | _ P _ _ _ _ Q _ 
3 | _ _ P _ P _ _ _ 
2 | _ _ _ _ _ _ _ K 
1 | _ _ _ _ _ _ _ _ 
-------------------
  | A B C D E F G H 

Turn of: black
Succesful move
e3e2
8 | _ R _ _ K _ N R 
7 | _ _ P _ _ _ P P 
6 | _ _ _ _ _ _ _ _ 
5 | _ P _ _ _ P B _ 
4 | _ P _ _ _ _ Q _ 
3 | _ _ P _ _ _ _ _ 
2 | _ _ _ _ P _ _ K 
1 | _ _ _ _ _ _ _ _ 
-------------------
  | A B C D E F G H 

Turn of: white
Succesful move
h2h1
8 | _ R _ _ K _ N R 
7 | _ _ P _ _ _ P P 
6 | _ _ _ _ _ _ _ _ 
5 | _ P _ _ _ P B _ 
4 | _ P _ _ _ _ Q _ 
3 | _ _ P _ _ _ _ _ 
2 | _ _ _ _ P _ _ _ 
1 | _ _ _ _ _ _ _ K 
-------------------
  | A B C D E F G H 

Turn of: black
Succesful move
e2e1q
8 | _ R _ _ K _ N R 
7 | _ _ P _ _ _ P P 
6 | _ _ _ _ _ _ _ _ 
5 | _ P _ _ _ P B _ 
4 | _ P _ _ _ _ Q _ 
3 | _ _ P _ _ _ _ _ 
2 | _ _ _ _ _ _ _ _ 
1 | _ _ _ _ Q _ _ K 
-------------------
  | A B C D E F G H 

We are playing as White
Move history:
e2e4
e7e5
d2d4
b8c6
d1f3
f8c5
f3a3
c5a3
f2f4
e5d4
b2b4
a3c1
f1b5
c6b4
h2h3
b4c2
e1d1
c2a1
b5a4
c1f4
a4b3
a1b3
a2b3
a7a5
d1e1
f4c1
b1c3
d4c3
e1f2
a8b8
f2f3
c1h6
g1e2
d7d5
b3b4
a5b4
h1b1
d5e4
f3g3
c8h3
b1e1
h3g2
g3g2
g8f6
e2d4
d8d4
e1d1
d4d1
g2f2
f6g8
f2g3
f7f5
g3h2
d1g4
h2h1
e4e3
h1h2
b7b5
h2h1
h6g5
h1h2
e3e2
h2h1
e2e1q
8 | _ R _ _ K _ N R 
7 | _ _ P _ _ _ P P 
6 | _ _ _ _ _ _ _ _ 
5 | _ P _ _ _ P B _ 
4 | _ P _ _ _ _ Q _ 
3 | _ _ P _ _ _ _ _ 
2 | _ _ _ _ _ _ _ _ 
1 | _ _ _ _ Q _ _ K 
-------------------
  | A B C D E F G H 

It is white's turn to play.
AI's move: h1h2
Move written: h1h2
[32;1m[Game] [0mPlayer's error code: 0
[32;1m[Game] [0mChecking move validity...
[32;1m[Board] [0mInitializing board...
[32;1m[Board] [0mLoading history file `championship/lizzie-iii-git-gambit/history.csv`...
[32;1m[Board] [0mLoaded 64 move(s).
[32;1m[Board] [0mLoading move file `championship/lizzie-iii-git-gambit/move.csv`...
[32;1m[Board] [0mWhite player is playing h1 to h2.
[32;1m[Board] [0m
[32;1m[Board] [0m    a b c d e f g h 
[32;1m[Board] [0m  -------------------
[32;1m[Board] [0m8 ||[7;1m [0m|[30;1mr[0m|[7;1m [0m| |[30;1mK[0m| |[30;1mk[0m|[30;1mr[0m|| 8
[32;1m[Board] [0m  -------------------
[32;1m[Board] [0m7 || |[7;1m [0m|[30;1mp[0m|[7;1m [0m| |[7;1m [0m|[30;1mp[0m|[30;1mp[0m|| 7
[32;1m[Board] [0m  -------------------
[32;1m[Board] [0m6 ||[7;1m [0m| |[7;1m [0m| |[7;1m [0m| |[7;1m [0m| || 6
[32;1m[Board] [0m  -------------------
[32;1m[Board] [0m5 || |[30;1mp[0m| |[7;1m [0m| |[30;1mp[0m|[30;1mb[0m|[7;1m [0m|| 5
[32;1m[Board] [0m  -------------------
[32;1m[Board] [0m4 ||[7;1m [0m|[30;1mp[0m|[7;1m [0m| |[7;1m [0m| |[30;1mQ[0m| || 4
[32;1m[Board] [0m  -------------------
[32;1m[Board] [0m3 || |[7;1m [0m|[30;1mp[0m|[7;1m [0m| |[7;1m [0m| |[7;1m [0m|| 3
[32;1m[Board] [0m  -------------------
[32;1m[Board] [0m2 ||[7;1m [0m| |[7;1m [0m| |[7;1m [0m| |[7;1m [0m|[0;1mK[0m|| 2
[32;1m[Board] [0m  -------------------
[32;1m[Board] [0m1 || |[7;1m [0m| |[7;1m [0m|[30;1mQ[0m|[7;1m [0m| |[7;1m [0m|| 1
[32;1m[Board] [0m  -------------------
[32;1m[Board] [0m    a b c d e f g h
[32;1m[Board] [0m
[32;1m[Referee] [0mThis is the turn of the Black player...

    a   b   c   d   e   f   g   h 
8 |   | r |   |   | k |   | n | r  | 8
7 |   |   | p |   |   |   | p | p  | 7
6 |   |   |   |   |   |   |   |    | 6
5 |   | p |   |   |   | p | b |    | 5
4 |   | p |   |   |   |   | q |    | 4
3 |   |   | p |   |   |   |   |    | 3
2 |   |   |   |   |   |   |   | K  | 2
1 |   |   |   |   | q |   |   |    | 1
    a   b   c   d   e   f   g   h 

next move: b8b7

[32;1m[Game] [0mPlayer's error code: 0
[32;1m[Game] [0mChecking move validity...
[32;1m[Board] [0mInitializing board...
[32;1m[Board] [0mLoading history file `championship/lizzie-iii-git-gambit/history.csv`...
[32;1m[Board] [0mLoaded 65 move(s).
[32;1m[Board] [0mLoading move file `championship/lizzie-iii-git-gambit/move.csv`...
[32;1m[Board] [0mBlack player is playing b8 to b7.
[32;1m[Board] [0m
[32;1m[Board] [0m    a b c d e f g h 
[32;1m[Board] [0m  -------------------
[32;1m[Board] [0m8 ||[7;1m [0m| |[7;1m [0m| |[30;1mK[0m| |[30;1mk[0m|[30;1mr[0m|| 8
[32;1m[Board] [0m  -------------------
[32;1m[Board] [0m7 || |[30;1mr[0m|[30;1mp[0m|[7;1m [0m| |[7;1m [0m|[30;1mp[0m|[30;1mp[0m|| 7
[32;1m[Board] [0m  -------------------
[32;1m[Board] [0m6 ||[7;1m [0m| |[7;1m [0m| |[7;1m [0m| |[7;1m [0m| || 6
[32;1m[Board] [0m  -------------------
[32;1m[Board] [0m5 || |[30;1mp[0m| |[7;1m [0m| |[30;1mp[0m|[30;1mb[0m|[7;1m [0m|| 5
[32;1m[Board] [0m  -------------------
[32;1m[Board] [0m4 ||[7;1m [0m|[30;1mp[0m|[7;1m [0m| |[7;1m [0m| |[30;1mQ[0m| || 4
[32;1m[Board] [0m  -------------------
[32;1m[Board] [0m3 || |[7;1m [0m|[30;1mp[0m|[7;1m [0m| |[7;1m [0m| |[7;1m [0m|| 3
[32;1m[Board] [0m  -------------------
[32;1m[Board] [0m2 ||[7;1m [0m| |[7;1m [0m| |[7;1m [0m| |[7;1m [0m|[0;1mK[0m|| 2
[32;1m[Board] [0m  -------------------
[32;1m[Board] [0m1 || |[7;1m [0m| |[7;1m [0m|[30;1mQ[0m|[7;1m [0m| |[7;1m [0m|| 1
[32;1m[Board] [0m  -------------------
[32;1m[Board] [0m    a b c d e f g h
[32;1m[Board] [0m
[32;1m[Referee] [0mThis is the turn of the White player...
[32;1m[Board] [0m[33;1m[WARNING][0m [5;1mWhite player is stalemate![0m
[32;1m[Board] [0m[33;1m[WARNING][0m Draw! Game over.
