[32;1m[Board] [0mInitializing board...
[32;1m[Board] [0m
[32;1m[Board] [0m    a b c d e f g h 
[32;1m[Board] [0m  -------------------
[32;1m[Board] [0m8 ||[30;1mr[0m|[30;1mk[0m|[30;1mb[0m|[30;1mQ[0m|[30;1mK[0m|[30;1mb[0m|[30;1mk[0m|[30;1mr[0m|| 8
[32;1m[Board] [0m  -------------------
[32;1m[Board] [0m7 ||[30;1mp[0m|[30;1mp[0m|[30;1mp[0m|[30;1mp[0m|[30;1mp[0m|[30;1mp[0m|[30;1mp[0m|[30;1mp[0m|| 7
[32;1m[Board] [0m  -------------------
[32;1m[Board] [0m6 ||[7;1m [0m| |[7;1m [0m| |[7;1m [0m| |[7;1m [0m| || 6
[32;1m[Board] [0m  -------------------
[32;1m[Board] [0m5 || |[7;1m [0m| |[7;1m [0m| |[7;1m [0m| |[7;1m [0m|| 5
[32;1m[Board] [0m  -------------------
[32;1m[Board] [0m4 ||[7;1m [0m| |[7;1m [0m| |[7;1m [0m| |[7;1m [0m| || 4
[32;1m[Board] [0m  -------------------
[32;1m[Board] [0m3 || |[7;1m [0m| |[7;1m [0m| |[7;1m [0m| |[7;1m [0m|| 3
[32;1m[Board] [0m  -------------------
[32;1m[Board] [0m2 ||[0;1mp[0m|[0;1mp[0m|[0;1mp[0m|[0;1mp[0m|[0;1mp[0m|[0;1mp[0m|[0;1mp[0m|[0;1mp[0m|| 2
[32;1m[Board] [0m  -------------------
[32;1m[Board] [0m1 ||[0;1mr[0m|[0;1mk[0m|[0;1mb[0m|[0;1mQ[0m|[0;1mK[0m|[0;1mb[0m|[0;1mk[0m|[0;1mr[0m|| 1
[32;1m[Board] [0m  -------------------
[32;1m[Board] [0m    a b c d e f g h
[32;1m[Board] [0m
[32;1m[Referee] [0mThis is the turn of the White player...
Input file: championship/lizzie-iii-logic-and-proofs/history.csv
Output file: championship/lizzie-iii-logic-and-proofs/move.csv
We are playing as White
Move history:
8 | R N B Q K B N R 
7 | P P P P P P P P 
6 | _ _ _ _ _ _ _ _ 
5 | _ _ _ _ _ _ _ _ 
4 | _ _ _ _ _ _ _ _ 
3 | _ _ _ _ _ _ _ _ 
2 | P P P P P P P P 
1 | R N B Q K B N R 
-------------------
  | A B C D E F G H 

It is white's turn to play.
AI's move: a2a3
Move written: a2a3
[32;1m[Game] [0mPlayer's error code: 0
[32;1m[Game] [0mChecking move validity...
[32;1m[Board] [0mInitializing board...
[32;1m[Board] [0mLoading history file `championship/lizzie-iii-logic-and-proofs/history.csv`...
[32;1m[Board] [0mLoaded 0 move(s).
[32;1m[Board] [0mLoading move file `championship/lizzie-iii-logic-and-proofs/move.csv`...
[32;1m[Board] [0mWhite player is playing a2 to a3.
[32;1m[Board] [0m
[32;1m[Board] [0m    a b c d e f g h 
[32;1m[Board] [0m  -------------------
[32;1m[Board] [0m8 ||[30;1mr[0m|[30;1mk[0m|[30;1mb[0m|[30;1mQ[0m|[30;1mK[0m|[30;1mb[0m|[30;1mk[0m|[30;1mr[0m|| 8
[32;1m[Board] [0m  -------------------
[32;1m[Board] [0m7 ||[30;1mp[0m|[30;1mp[0m|[30;1mp[0m|[30;1mp[0m|[30;1mp[0m|[30;1mp[0m|[30;1mp[0m|[30;1mp[0m|| 7
[32;1m[Board] [0m  -------------------
[32;1m[Board] [0m6 ||[7;1m [0m| |[7;1m [0m| |[7;1m [0m| |[7;1m [0m| || 6
[32;1m[Board] [0m  -------------------
[32;1m[Board] [0m5 || |[7;1m [0m| |[7;1m [0m| |[7;1m [0m| |[7;1m [0m|| 5
[32;1m[Board] [0m  -------------------
[32;1m[Board] [0m4 ||[7;1m [0m| |[7;1m [0m| |[7;1m [0m| |[7;1m [0m| || 4
[32;1m[Board] [0m  -------------------
[32;1m[Board] [0m3 ||[0;1mp[0m|[7;1m [0m| |[7;1m [0m| |[7;1m [0m| |[7;1m [0m|| 3
[32;1m[Board] [0m  -------------------
[32;1m[Board] [0m2 ||[7;1m [0m|[0;1mp[0m|[0;1mp[0m|[0;1mp[0m|[0;1mp[0m|[0;1mp[0m|[0;1mp[0m|[0;1mp[0m|| 2
[32;1m[Board] [0m  -------------------
[32;1m[Board] [0m1 ||[0;1mr[0m|[0;1mk[0m|[0;1mb[0m|[0;1mQ[0m|[0;1mK[0m|[0;1mb[0m|[0;1mk[0m|[0;1mr[0m|| 1
[32;1m[Board] [0m  -------------------
[32;1m[Board] [0m    a b c d e f g h
[32;1m[Board] [0m
[32;1m[Referee] [0mThis is the turn of the Black player...
[DEBUG] Input history filename: championship/lizzie-iii-logic-and-proofs/history.csv
[DEBUG] Output move file: championship/lizzie-iii-logic-and-proofs/move.csv
starting search...
searched and found best move in search: 25673
Total nodes searched: 2726
how i see the board before writing next move: Turn: Black
Enpassant: xx	Castling: WK WQ BK BQ 
   ---- ---- ---- ---- ---- ---- ---- ----
8 | r  | n  | b  | q  | k  | b  | n  | r  |
   ---- ---- ---- ---- ---- ---- ---- ----
7 | p  | p  | p  | p  | p  | p  | p  | p  |
   ---- ---- ---- ---- ---- ---- ---- ----
6 |    |    |    |    |    |    |    |    |
   ---- ---- ---- ---- ---- ---- ---- ----
5 |    |    |    |    |    |    |    |    |
   ---- ---- ---- ---- ---- ---- ---- ----
4 |    |    |    |    |    |    |    |    |
   ---- ---- ---- ---- ---- ---- ---- ----
3 | P  |    |    |    |    |    |    |    |
   ---- ---- ---- ---- ---- ---- ---- ----
2 |    | P  | P  | P  | P  | P  | P  | P  |
   ---- ---- ---- ---- ---- ---- ---- ----
1 | R  | N  | B  | Q  | K  | B  | N  | R  |
   ---- ---- ---- ---- ---- ---- ---- ----
    a    b    c    d    e    f    g    h
[DEBUG] [Parser] Wrote to ouput file championship/lizzie-iii-logic-and-proofs/move.csv move : b7b6
[32;1m[Game] [0mPlayer's error code: 0
[32;1m[Game] [0mChecking move validity...
[32;1m[Board] [0mInitializing board...
[32;1m[Board] [0mLoading history file `championship/lizzie-iii-logic-and-proofs/history.csv`...
[32;1m[Board] [0mLoaded 1 move(s).
[32;1m[Board] [0mLoading move file `championship/lizzie-iii-logic-and-proofs/move.csv`...
[32;1m[Board] [0mBlack player is playing b7 to b6.
[32;1m[Board] [0m
[32;1m[Board] [0m    a b c d e f g h 
[32;1m[Board] [0m  -------------------
[32;1m[Board] [0m8 ||[30;1mr[0m|[30;1mk[0m|[30;1mb[0m|[30;1mQ[0m|[30;1mK[0m|[30;1mb[0m|[30;1mk[0m|[30;1mr[0m|| 8
[32;1m[Board] [0m  -------------------
[32;1m[Board] [0m7 ||[30;1mp[0m|[7;1m [0m|[30;1mp[0m|[30;1mp[0m|[30;1mp[0m|[30;1mp[0m|[30;1mp[0m|[30;1mp[0m|| 7
[32;1m[Board] [0m  -------------------
[32;1m[Board] [0m6 ||[7;1m [0m|[30;1mp[0m|[7;1m [0m| |[7;1m [0m| |[7;1m [0m| || 6
[32;1m[Board] [0m  -------------------
[32;1m[Board] [0m5 || |[7;1m [0m| |[7;1m [0m| |[7;1m [0m| |[7;1m [0m|| 5
[32;1m[Board] [0m  -------------------
[32;1m[Board] [0m4 ||[7;1m [0m| |[7;1m [0m| |[7;1m [0m| |[7;1m [0m| || 4
[32;1m[Board] [0m  -------------------
[32;1m[Board] [0m3 ||[0;1mp[0m|[7;1m [0m| |[7;1m [0m| |[7;1m [0m| |[7;1m [0m|| 3
[32;1m[Board] [0m  -------------------
[32;1m[Board] [0m2 ||[7;1m [0m|[0;1mp[0m|[0;1mp[0m|[0;1mp[0m|[0;1mp[0m|[0;1mp[0m|[0;1mp[0m|[0;1mp[0m|| 2
[32;1m[Board] [0m  -------------------
[32;1m[Board] [0m1 ||[0;1mr[0m|[0;1mk[0m|[0;1mb[0m|[0;1mQ[0m|[0;1mK[0m|[0;1mb[0m|[0;1mk[0m|[0;1mr[0m|| 1
[32;1m[Board] [0m  -------------------
[32;1m[Board] [0m    a b c d e f g h
[32;1m[Board] [0m
[32;1m[Referee] [0mThis is the turn of the White player...
Input file: championship/lizzie-iii-logic-and-proofs/history.csv
Output file: championship/lizzie-iii-logic-and-proofs/move.csv
Turn of: white
Succesful move
a2a3
8 | R N B Q K B N R 
7 | P P P P P P P P 
6 | _ _ _ _ _ _ _ _ 
5 | _ _ _ _ _ _ _ _ 
4 | _ _ _ _ _ _ _ _ 
3 | P _ _ _ _ _ _ _ 
2 | _ P P P P P P P 
1 | R N B Q K B N R 
-------------------
  | A B C D E F G H 

Turn of: black
Succesful move
b7b6
8 | R N B Q K B N R 
7 | P _ P P P P P P 
6 | _ P _ _ _ _ _ _ 
5 | _ _ _ _ _ _ _ _ 
4 | _ _ _ _ _ _ _ _ 
3 | P _ _ _ _ _ _ _ 
2 | _ P P P P P P P 
1 | R N B Q K B N R 
-------------------
  | A B C D E F G H 

We are playing as White
Move history:
a2a3
b7b6
8 | R N B Q K B N R 
7 | P _ P P P P P P 
6 | _ P _ _ _ _ _ _ 
5 | _ _ _ _ _ _ _ _ 
4 | _ _ _ _ _ _ _ _ 
3 | P _ _ _ _ _ _ _ 
2 | _ P P P P P P P 
1 | R N B Q K B N R 
-------------------
  | A B C D E F G H 

It is white's turn to play.
AI's move: f2f3
Move written: f2f3
[32;1m[Game] [0mPlayer's error code: 0
[32;1m[Game] [0mChecking move validity...
[32;1m[Board] [0mInitializing board...
[32;1m[Board] [0mLoading history file `championship/lizzie-iii-logic-and-proofs/history.csv`...
[32;1m[Board] [0mLoaded 2 move(s).
[32;1m[Board] [0mLoading move file `championship/lizzie-iii-logic-and-proofs/move.csv`...
[32;1m[Board] [0mWhite player is playing f2 to f3.
[32;1m[Board] [0m
[32;1m[Board] [0m    a b c d e f g h 
[32;1m[Board] [0m  -------------------
[32;1m[Board] [0m8 ||[30;1mr[0m|[30;1mk[0m|[30;1mb[0m|[30;1mQ[0m|[30;1mK[0m|[30;1mb[0m|[30;1mk[0m|[30;1mr[0m|| 8
[32;1m[Board] [0m  -------------------
[32;1m[Board] [0m7 ||[30;1mp[0m|[7;1m [0m|[30;1mp[0m|[30;1mp[0m|[30;1mp[0m|[30;1mp[0m|[30;1mp[0m|[30;1mp[0m|| 7
[32;1m[Board] [0m  -------------------
[32;1m[Board] [0m6 ||[7;1m [0m|[30;1mp[0m|[7;1m [0m| |[7;1m [0m| |[7;1m [0m| || 6
[32;1m[Board] [0m  -------------------
[32;1m[Board] [0m5 || |[7;1m [0m| |[7;1m [0m| |[7;1m [0m| |[7;1m [0m|| 5
[32;1m[Board] [0m  -------------------
[32;1m[Board] [0m4 ||[7;1m [0m| |[7;1m [0m| |[7;1m [0m| |[7;1m [0m| || 4
[32;1m[Board] [0m  -------------------
[32;1m[Board] [0m3 ||[0;1mp[0m|[7;1m [0m| |[7;1m [0m| |[0;1mp[0m| |[7;1m [0m|| 3
[32;1m[Board] [0m  -------------------
[32;1m[Board] [0m2 ||[7;1m [0m|[0;1mp[0m|[0;1mp[0m|[0;1mp[0m|[0;1mp[0m| |[0;1mp[0m|[0;1mp[0m|| 2
[32;1m[Board] [0m  -------------------
[32;1m[Board] [0m1 ||[0;1mr[0m|[0;1mk[0m|[0;1mb[0m|[0;1mQ[0m|[0;1mK[0m|[0;1mb[0m|[0;1mk[0m|[0;1mr[0m|| 1
[32;1m[Board] [0m  -------------------
[32;1m[Board] [0m    a b c d e f g h
[32;1m[Board] [0m
[32;1m[Referee] [0mThis is the turn of the Black player...
[DEBUG] Input history filename: championship/lizzie-iii-logic-and-proofs/history.csv
[DEBUG] Output move file: championship/lizzie-iii-logic-and-proofs/move.csv
starting search...
searched and found best move in search: 25608
Total nodes searched: 3554
how i see the board before writing next move: Turn: Black
Enpassant: xx	Castling: WK WQ BK BQ 
   ---- ---- ---- ---- ---- ---- ---- ----
8 | r  | n  | b  | q  | k  | b  | n  | r  |
   ---- ---- ---- ---- ---- ---- ---- ----
7 | p  |    | p  | p  | p  | p  | p  | p  |
   ---- ---- ---- ---- ---- ---- ---- ----
6 |    | p  |    |    |    |    |    |    |
   ---- ---- ---- ---- ---- ---- ---- ----
5 |    |    |    |    |    |    |    |    |
   ---- ---- ---- ---- ---- ---- ---- ----
4 |    |    |    |    |    |    |    |    |
   ---- ---- ---- ---- ---- ---- ---- ----
3 | P  |    |    |    |    | P  |    |    |
   ---- ---- ---- ---- ---- ---- ---- ----
2 |    | P  | P  | P  | P  |    | P  | P  |
   ---- ---- ---- ---- ---- ---- ---- ----
1 | R  | N  | B  | Q  | K  | B  | N  | R  |
   ---- ---- ---- ---- ---- ---- ---- ----
    a    b    c    d    e    f    g    h
[DEBUG] [Parser] Wrote to ouput file championship/lizzie-iii-logic-and-proofs/move.csv move : a7a6
[32;1m[Game] [0mPlayer's error code: 0
[32;1m[Game] [0mChecking move validity...
[32;1m[Board] [0mInitializing board...
[32;1m[Board] [0mLoading history file `championship/lizzie-iii-logic-and-proofs/history.csv`...
[32;1m[Board] [0mLoaded 3 move(s).
[32;1m[Board] [0mLoading move file `championship/lizzie-iii-logic-and-proofs/move.csv`...
[32;1m[Board] [0mBlack player is playing a7 to a6.
[32;1m[Board] [0m
[32;1m[Board] [0m    a b c d e f g h 
[32;1m[Board] [0m  -------------------
[32;1m[Board] [0m8 ||[30;1mr[0m|[30;1mk[0m|[30;1mb[0m|[30;1mQ[0m|[30;1mK[0m|[30;1mb[0m|[30;1mk[0m|[30;1mr[0m|| 8
[32;1m[Board] [0m  -------------------
[32;1m[Board] [0m7 || |[7;1m [0m|[30;1mp[0m|[30;1mp[0m|[30;1mp[0m|[30;1mp[0m|[30;1mp[0m|[30;1mp[0m|| 7
[32;1m[Board] [0m  -------------------
[32;1m[Board] [0m6 ||[30;1mp[0m|[30;1mp[0m|[7;1m [0m| |[7;1m [0m| |[7;1m [0m| || 6
[32;1m[Board] [0m  -------------------
[32;1m[Board] [0m5 || |[7;1m [0m| |[7;1m [0m| |[7;1m [0m| |[7;1m [0m|| 5
[32;1m[Board] [0m  -------------------
[32;1m[Board] [0m4 ||[7;1m [0m| |[7;1m [0m| |[7;1m [0m| |[7;1m [0m| || 4
[32;1m[Board] [0m  -------------------
[32;1m[Board] [0m3 ||[0;1mp[0m|[7;1m [0m| |[7;1m [0m| |[0;1mp[0m| |[7;1m [0m|| 3
[32;1m[Board] [0m  -------------------
[32;1m[Board] [0m2 ||[7;1m [0m|[0;1mp[0m|[0;1mp[0m|[0;1mp[0m|[0;1mp[0m| |[0;1mp[0m|[0;1mp[0m|| 2
[32;1m[Board] [0m  -------------------
[32;1m[Board] [0m1 ||[0;1mr[0m|[0;1mk[0m|[0;1mb[0m|[0;1mQ[0m|[0;1mK[0m|[0;1mb[0m|[0;1mk[0m|[0;1mr[0m|| 1
[32;1m[Board] [0m  -------------------
[32;1m[Board] [0m    a b c d e f g h
[32;1m[Board] [0m
[32;1m[Referee] [0mThis is the turn of the White player...
Input file: championship/lizzie-iii-logic-and-proofs/history.csv
Output file: championship/lizzie-iii-logic-and-proofs/move.csv
Turn of: white
Succesful move
a2a3
8 | R N B Q K B N R 
7 | P P P P P P P P 
6 | _ _ _ _ _ _ _ _ 
5 | _ _ _ _ _ _ _ _ 
4 | _ _ _ _ _ _ _ _ 
3 | P _ _ _ _ _ _ _ 
2 | _ P P P P P P P 
1 | R N B Q K B N R 
-------------------
  | A B C D E F G H 

Turn of: black
Succesful move
b7b6
8 | R N B Q K B N R 
7 | P _ P P P P P P 
6 | _ P _ _ _ _ _ _ 
5 | _ _ _ _ _ _ _ _ 
4 | _ _ _ _ _ _ _ _ 
3 | P _ _ _ _ _ _ _ 
2 | _ P P P P P P P 
1 | R N B Q K B N R 
-------------------
  | A B C D E F G H 

Turn of: white
Succesful move
f2f3
8 | R N B Q K B N R 
7 | P _ P P P P P P 
6 | _ P _ _ _ _ _ _ 
5 | _ _ _ _ _ _ _ _ 
4 | _ _ _ _ _ _ _ _ 
3 | P _ _ _ _ P _ _ 
2 | _ P P P P _ P P 
1 | R N B Q K B N R 
-------------------
  | A B C D E F G H 

Turn of: black
Succesful move
a7a6
8 | R N B Q K B N R 
7 | _ _ P P P P P P 
6 | P P _ _ _ _ _ _ 
5 | _ _ _ _ _ _ _ _ 
4 | _ _ _ _ _ _ _ _ 
3 | P _ _ _ _ P _ _ 
2 | _ P P P P _ P P 
1 | R N B Q K B N R 
-------------------
  | A B C D E F G H 

We are playing as White
Move history:
a2a3
b7b6
f2f3
a7a6
8 | R N B Q K B N R 
7 | _ _ P P P P P P 
6 | P P _ _ _ _ _ _ 
5 | _ _ _ _ _ _ _ _ 
4 | _ _ _ _ _ _ _ _ 
3 | P _ _ _ _ P _ _ 
2 | _ P P P P _ P P 
1 | R N B Q K B N R 
-------------------
  | A B C D E F G H 

It is white's turn to play.
AI's move: b1c3
Move written: b1c3
[32;1m[Game] [0mPlayer's error code: 0
[32;1m[Game] [0mChecking move validity...
[32;1m[Board] [0mInitializing board...
[32;1m[Board] [0mLoading history file `championship/lizzie-iii-logic-and-proofs/history.csv`...
[32;1m[Board] [0mLoaded 4 move(s).
[32;1m[Board] [0mLoading move file `championship/lizzie-iii-logic-and-proofs/move.csv`...
[32;1m[Board] [0mWhite player is playing b1 to c3.
[32;1m[Board] [0m
[32;1m[Board] [0m    a b c d e f g h 
[32;1m[Board] [0m  -------------------
[32;1m[Board] [0m8 ||[30;1mr[0m|[30;1mk[0m|[30;1mb[0m|[30;1mQ[0m|[30;1mK[0m|[30;1mb[0m|[30;1mk[0m|[30;1mr[0m|| 8
[32;1m[Board] [0m  -------------------
[32;1m[Board] [0m7 || |[7;1m [0m|[30;1mp[0m|[30;1mp[0m|[30;1mp[0m|[30;1mp[0m|[30;1mp[0m|[30;1mp[0m|| 7
[32;1m[Board] [0m  -------------------
[32;1m[Board] [0m6 ||[30;1mp[0m|[30;1mp[0m|[7;1m [0m| |[7;1m [0m| |[7;1m [0m| || 6
[32;1m[Board] [0m  -------------------
[32;1m[Board] [0m5 || |[7;1m [0m| |[7;1m [0m| |[7;1m [0m| |[7;1m [0m|| 5
[32;1m[Board] [0m  -------------------
[32;1m[Board] [0m4 ||[7;1m [0m| |[7;1m [0m| |[7;1m [0m| |[7;1m [0m| || 4
[32;1m[Board] [0m  -------------------
[32;1m[Board] [0m3 ||[0;1mp[0m|[7;1m [0m|[0;1mk[0m|[7;1m [0m| |[0;1mp[0m| |[7;1m [0m|| 3
[32;1m[Board] [0m  -------------------
[32;1m[Board] [0m2 ||[7;1m [0m|[0;1mp[0m|[0;1mp[0m|[0;1mp[0m|[0;1mp[0m| |[0;1mp[0m|[0;1mp[0m|| 2
[32;1m[Board] [0m  -------------------
[32;1m[Board] [0m1 ||[0;1mr[0m|[7;1m [0m|[0;1mb[0m|[0;1mQ[0m|[0;1mK[0m|[0;1mb[0m|[0;1mk[0m|[0;1mr[0m|| 1
[32;1m[Board] [0m  -------------------
[32;1m[Board] [0m    a b c d e f g h
[32;1m[Board] [0m
[32;1m[Referee] [0mThis is the turn of the Black player...
[DEBUG] Input history filename: championship/lizzie-iii-logic-and-proofs/history.csv
[DEBUG] Output move file: championship/lizzie-iii-logic-and-proofs/move.csv
starting search...
searched and found best move in search: 25803
Total nodes searched: 4956
how i see the board before writing next move: Turn: Black
Enpassant: xx	Castling: WK WQ BK BQ 
   ---- ---- ---- ---- ---- ---- ---- ----
8 | r  | n  | b  | q  | k  | b  | n  | r  |
   ---- ---- ---- ---- ---- ---- ---- ----
7 |    |    | p  | p  | p  | p  | p  | p  |
   ---- ---- ---- ---- ---- ---- ---- ----
6 | p  | p  |    |    |    |    |    |    |
   ---- ---- ---- ---- ---- ---- ---- ----
5 |    |    |    |    |    |    |    |    |
   ---- ---- ---- ---- ---- ---- ---- ----
4 |    |    |    |    |    |    |    |    |
   ---- ---- ---- ---- ---- ---- ---- ----
3 | P  |    | N  |    |    | P  |    |    |
   ---- ---- ---- ---- ---- ---- ---- ----
2 |    | P  | P  | P  | P  |    | P  | P  |
   ---- ---- ---- ---- ---- ---- ---- ----
1 | R  |    | B  | Q  | K  | B  | N  | R  |
   ---- ---- ---- ---- ---- ---- ---- ----
    a    b    c    d    e    f    g    h
[DEBUG] [Parser] Wrote to ouput file championship/lizzie-iii-logic-and-proofs/move.csv move : d7d6
[32;1m[Game] [0mPlayer's error code: 0
[32;1m[Game] [0mChecking move validity...
[32;1m[Board] [0mInitializing board...
[32;1m[Board] [0mLoading history file `championship/lizzie-iii-logic-and-proofs/history.csv`...
[32;1m[Board] [0mLoaded 5 move(s).
[32;1m[Board] [0mLoading move file `championship/lizzie-iii-logic-and-proofs/move.csv`...
[32;1m[Board] [0mBlack player is playing d7 to d6.
[32;1m[Board] [0m
[32;1m[Board] [0m    a b c d e f g h 
[32;1m[Board] [0m  -------------------
[32;1m[Board] [0m8 ||[30;1mr[0m|[30;1mk[0m|[30;1mb[0m|[30;1mQ[0m|[30;1mK[0m|[30;1mb[0m|[30;1mk[0m|[30;1mr[0m|| 8
[32;1m[Board] [0m  -------------------
[32;1m[Board] [0m7 || |[7;1m [0m|[30;1mp[0m|[7;1m [0m|[30;1mp[0m|[30;1mp[0m|[30;1mp[0m|[30;1mp[0m|| 7
[32;1m[Board] [0m  -------------------
[32;1m[Board] [0m6 ||[30;1mp[0m|[30;1mp[0m|[7;1m [0m|[30;1mp[0m|[7;1m [0m| |[7;1m [0m| || 6
[32;1m[Board] [0m  -------------------
[32;1m[Board] [0m5 || |[7;1m [0m| |[7;1m [0m| |[7;1m [0m| |[7;1m [0m|| 5
[32;1m[Board] [0m  -------------------
[32;1m[Board] [0m4 ||[7;1m [0m| |[7;1m [0m| |[7;1m [0m| |[7;1m [0m| || 4
[32;1m[Board] [0m  -------------------
[32;1m[Board] [0m3 ||[0;1mp[0m|[7;1m [0m|[0;1mk[0m|[7;1m [0m| |[0;1mp[0m| |[7;1m [0m|| 3
[32;1m[Board] [0m  -------------------
[32;1m[Board] [0m2 ||[7;1m [0m|[0;1mp[0m|[0;1mp[0m|[0;1mp[0m|[0;1mp[0m| |[0;1mp[0m|[0;1mp[0m|| 2
[32;1m[Board] [0m  -------------------
[32;1m[Board] [0m1 ||[0;1mr[0m|[7;1m [0m|[0;1mb[0m|[0;1mQ[0m|[0;1mK[0m|[0;1mb[0m|[0;1mk[0m|[0;1mr[0m|| 1
[32;1m[Board] [0m  -------------------
[32;1m[Board] [0m    a b c d e f g h
[32;1m[Board] [0m
[32;1m[Referee] [0mThis is the turn of the White player...
Input file: championship/lizzie-iii-logic-and-proofs/history.csv
Output file: championship/lizzie-iii-logic-and-proofs/move.csv
Turn of: white
Succesful move
a2a3
8 | R N B Q K B N R 
7 | P P P P P P P P 
6 | _ _ _ _ _ _ _ _ 
5 | _ _ _ _ _ _ _ _ 
4 | _ _ _ _ _ _ _ _ 
3 | P _ _ _ _ _ _ _ 
2 | _ P P P P P P P 
1 | R N B Q K B N R 
-------------------
  | A B C D E F G H 

Turn of: black
Succesful move
b7b6
8 | R N B Q K B N R 
7 | P _ P P P P P P 
6 | _ P _ _ _ _ _ _ 
5 | _ _ _ _ _ _ _ _ 
4 | _ _ _ _ _ _ _ _ 
3 | P _ _ _ _ _ _ _ 
2 | _ P P P P P P P 
1 | R N B Q K B N R 
-------------------
  | A B C D E F G H 

Turn of: white
Succesful move
f2f3
8 | R N B Q K B N R 
7 | P _ P P P P P P 
6 | _ P _ _ _ _ _ _ 
5 | _ _ _ _ _ _ _ _ 
4 | _ _ _ _ _ _ _ _ 
3 | P _ _ _ _ P _ _ 
2 | _ P P P P _ P P 
1 | R N B Q K B N R 
-------------------
  | A B C D E F G H 

Turn of: black
Succesful move
a7a6
8 | R N B Q K B N R 
7 | _ _ P P P P P P 
6 | P P _ _ _ _ _ _ 
5 | _ _ _ _ _ _ _ _ 
4 | _ _ _ _ _ _ _ _ 
3 | P _ _ _ _ P _ _ 
2 | _ P P P P _ P P 
1 | R N B Q K B N R 
-------------------
  | A B C D E F G H 

Turn of: white
Succesful move
b1c3
8 | R N B Q K B N R 
7 | _ _ P P P P P P 
6 | P P _ _ _ _ _ _ 
5 | _ _ _ _ _ _ _ _ 
4 | _ _ _ _ _ _ _ _ 
3 | P _ N _ _ P _ _ 
2 | _ P P P P _ P P 
1 | R _ B Q K B N R 
-------------------
  | A B C D E F G H 

Turn of: black
Succesful move
d7d6
8 | R N B Q K B N R 
7 | _ _ P _ P P P P 
6 | P P _ P _ _ _ _ 
5 | _ _ _ _ _ _ _ _ 
4 | _ _ _ _ _ _ _ _ 
3 | P _ N _ _ P _ _ 
2 | _ P P P P _ P P 
1 | R _ B Q K B N R 
-------------------
  | A B C D E F G H 

We are playing as White
Move history:
a2a3
b7b6
f2f3
a7a6
b1c3
d7d6
8 | R N B Q K B N R 
7 | _ _ P _ P P P P 
6 | P P _ P _ _ _ _ 
5 | _ _ _ _ _ _ _ _ 
4 | _ _ _ _ _ _ _ _ 
3 | P _ N _ _ P _ _ 
2 | _ P P P P _ P P 
1 | R _ B Q K B N R 
-------------------
  | A B C D E F G H 

It is white's turn to play.
AI's move: c3b5
Move written: c3b5
[32;1m[Game] [0mPlayer's error code: 0
[32;1m[Game] [0mChecking move validity...
[32;1m[Board] [0mInitializing board...
[32;1m[Board] [0mLoading history file `championship/lizzie-iii-logic-and-proofs/history.csv`...
[32;1m[Board] [0mLoaded 6 move(s).
[32;1m[Board] [0mLoading move file `championship/lizzie-iii-logic-and-proofs/move.csv`...
[32;1m[Board] [0mWhite player is playing c3 to b5.
[32;1m[Board] [0m
[32;1m[Board] [0m    a b c d e f g h 
[32;1m[Board] [0m  -------------------
[32;1m[Board] [0m8 ||[30;1mr[0m|[30;1mk[0m|[30;1mb[0m|[30;1mQ[0m|[30;1mK[0m|[30;1mb[0m|[30;1mk[0m|[30;1mr[0m|| 8
[32;1m[Board] [0m  -------------------
[32;1m[Board] [0m7 || |[7;1m [0m|[30;1mp[0m|[7;1m [0m|[30;1mp[0m|[30;1mp[0m|[30;1mp[0m|[30;1mp[0m|| 7
[32;1m[Board] [0m  -------------------
[32;1m[Board] [0m6 ||[30;1mp[0m|[30;1mp[0m|[7;1m [0m|[30;1mp[0m|[7;1m [0m| |[7;1m [0m| || 6
[32;1m[Board] [0m  -------------------
[32;1m[Board] [0m5 || |[0;1mk[0m| |[7;1m [0m| |[7;1m [0m| |[7;1m [0m|| 5
[32;1m[Board] [0m  -------------------
[32;1m[Board] [0m4 ||[7;1m [0m| |[7;1m [0m| |[7;1m [0m| |[7;1m [0m| || 4
[32;1m[Board] [0m  -------------------
[32;1m[Board] [0m3 ||[0;1mp[0m|[7;1m [0m| |[7;1m [0m| |[0;1mp[0m| |[7;1m [0m|| 3
[32;1m[Board] [0m  -------------------
[32;1m[Board] [0m2 ||[7;1m [0m|[0;1mp[0m|[0;1mp[0m|[0;1mp[0m|[0;1mp[0m| |[0;1mp[0m|[0;1mp[0m|| 2
[32;1m[Board] [0m  -------------------
[32;1m[Board] [0m1 ||[0;1mr[0m|[7;1m [0m|[0;1mb[0m|[0;1mQ[0m|[0;1mK[0m|[0;1mb[0m|[0;1mk[0m|[0;1mr[0m|| 1
[32;1m[Board] [0m  -------------------
[32;1m[Board] [0m    a b c d e f g h
[32;1m[Board] [0m
[32;1m[Referee] [0mThis is the turn of the Black player...
[DEBUG] Input history filename: championship/lizzie-iii-logic-and-proofs/history.csv
[DEBUG] Output move file: championship/lizzie-iii-logic-and-proofs/move.csv
starting search...
searched and found best move in search: 1074768
Total nodes searched: 34960
how i see the board before writing next move: Turn: Black
Enpassant: xx	Castling: WK WQ BK BQ 
   ---- ---- ---- ---- ---- ---- ---- ----
8 | r  | n  | b  | q  | k  | b  | n  | r  |
   ---- ---- ---- ---- ---- ---- ---- ----
7 |    |    | p  |    | p  | p  | p  | p  |
   ---- ---- ---- ---- ---- ---- ---- ----
6 | p  | p  |    | p  |    |    |    |    |
   ---- ---- ---- ---- ---- ---- ---- ----
5 |    | N  |    |    |    |    |    |    |
   ---- ---- ---- ---- ---- ---- ---- ----
4 |    |    |    |    |    |    |    |    |
   ---- ---- ---- ---- ---- ---- ---- ----
3 | P  |    |    |    |    | P  |    |    |
   ---- ---- ---- ---- ---- ---- ---- ----
2 |    | P  | P  | P  | P  |    | P  | P  |
   ---- ---- ---- ---- ---- ---- ---- ----
1 | R  |    | B  | Q  | K  | B  | N  | R  |
   ---- ---- ---- ---- ---- ---- ---- ----
    a    b    c    d    e    f    g    h
[DEBUG] [Parser] Wrote to ouput file championship/lizzie-iii-logic-and-proofs/move.csv move : a6b5
[32;1m[Game] [0mPlayer's error code: 0
[32;1m[Game] [0mChecking move validity...
[32;1m[Board] [0mInitializing board...
[32;1m[Board] [0mLoading history file `championship/lizzie-iii-logic-and-proofs/history.csv`...
[32;1m[Board] [0mLoaded 7 move(s).
[32;1m[Board] [0mLoading move file `championship/lizzie-iii-logic-and-proofs/move.csv`...
[32;1m[Board] [0mBlack player is playing a6 to b5.
[32;1m[Board] [0m[5;1mBlack Pawn is taking White Knight.[0m
[32;1m[Board] [0m
[32;1m[Board] [0m    a b c d e f g h 
[32;1m[Board] [0m  -------------------
[32;1m[Board] [0m8 ||[30;1mr[0m|[30;1mk[0m|[30;1mb[0m|[30;1mQ[0m|[30;1mK[0m|[30;1mb[0m|[30;1mk[0m|[30;1mr[0m|| 8
[32;1m[Board] [0m  -------------------
[32;1m[Board] [0m7 || |[7;1m [0m|[30;1mp[0m|[7;1m [0m|[30;1mp[0m|[30;1mp[0m|[30;1mp[0m|[30;1mp[0m|| 7
[32;1m[Board] [0m  -------------------
[32;1m[Board] [0m6 ||[7;1m [0m|[30;1mp[0m|[7;1m [0m|[30;1mp[0m|[7;1m [0m| |[7;1m [0m| || 6
[32;1m[Board] [0m  -------------------
[32;1m[Board] [0m5 || |[30;1mp[0m| |[7;1m [0m| |[7;1m [0m| |[7;1m [0m|| 5
[32;1m[Board] [0m  -------------------
[32;1m[Board] [0m4 ||[7;1m [0m| |[7;1m [0m| |[7;1m [0m| |[7;1m [0m| || 4
[32;1m[Board] [0m  -------------------
[32;1m[Board] [0m3 ||[0;1mp[0m|[7;1m [0m| |[7;1m [0m| |[0;1mp[0m| |[7;1m [0m|| 3
[32;1m[Board] [0m  -------------------
[32;1m[Board] [0m2 ||[7;1m [0m|[0;1mp[0m|[0;1mp[0m|[0;1mp[0m|[0;1mp[0m| |[0;1mp[0m|[0;1mp[0m|| 2
[32;1m[Board] [0m  -------------------
[32;1m[Board] [0m1 ||[0;1mr[0m|[7;1m [0m|[0;1mb[0m|[0;1mQ[0m|[0;1mK[0m|[0;1mb[0m|[0;1mk[0m|[0;1mr[0m|| 1
[32;1m[Board] [0m  -------------------
[32;1m[Board] [0m    a b c d e f g h
[32;1m[Board] [0m
[32;1m[Referee] [0mThis is the turn of the White player...
Input file: championship/lizzie-iii-logic-and-proofs/history.csv
Output file: championship/lizzie-iii-logic-and-proofs/move.csv
Turn of: white
Succesful move
a2a3
8 | R N B Q K B N R 
7 | P P P P P P P P 
6 | _ _ _ _ _ _ _ _ 
5 | _ _ _ _ _ _ _ _ 
4 | _ _ _ _ _ _ _ _ 
3 | P _ _ _ _ _ _ _ 
2 | _ P P P P P P P 
1 | R N B Q K B N R 
-------------------
  | A B C D E F G H 

Turn of: black
Succesful move
b7b6
8 | R N B Q K B N R 
7 | P _ P P P P P P 
6 | _ P _ _ _ _ _ _ 
5 | _ _ _ _ _ _ _ _ 
4 | _ _ _ _ _ _ _ _ 
3 | P _ _ _ _ _ _ _ 
2 | _ P P P P P P P 
1 | R N B Q K B N R 
-------------------
  | A B C D E F G H 

Turn of: white
Succesful move
f2f3
8 | R N B Q K B N R 
7 | P _ P P P P P P 
6 | _ P _ _ _ _ _ _ 
5 | _ _ _ _ _ _ _ _ 
4 | _ _ _ _ _ _ _ _ 
3 | P _ _ _ _ P _ _ 
2 | _ P P P P _ P P 
1 | R N B Q K B N R 
-------------------
  | A B C D E F G H 

Turn of: black
Succesful move
a7a6
8 | R N B Q K B N R 
7 | _ _ P P P P P P 
6 | P P _ _ _ _ _ _ 
5 | _ _ _ _ _ _ _ _ 
4 | _ _ _ _ _ _ _ _ 
3 | P _ _ _ _ P _ _ 
2 | _ P P P P _ P P 
1 | R N B Q K B N R 
-------------------
  | A B C D E F G H 

Turn of: white
Succesful move
b1c3
8 | R N B Q K B N R 
7 | _ _ P P P P P P 
6 | P P _ _ _ _ _ _ 
5 | _ _ _ _ _ _ _ _ 
4 | _ _ _ _ _ _ _ _ 
3 | P _ N _ _ P _ _ 
2 | _ P P P P _ P P 
1 | R _ B Q K B N R 
-------------------
  | A B C D E F G H 

Turn of: black
Succesful move
d7d6
8 | R N B Q K B N R 
7 | _ _ P _ P P P P 
6 | P P _ P _ _ _ _ 
5 | _ _ _ _ _ _ _ _ 
4 | _ _ _ _ _ _ _ _ 
3 | P _ N _ _ P _ _ 
2 | _ P P P P _ P P 
1 | R _ B Q K B N R 
-------------------
  | A B C D E F G H 

Turn of: white
Succesful move
c3b5
8 | R N B Q K B N R 
7 | _ _ P _ P P P P 
6 | P P _ P _ _ _ _ 
5 | _ N _ _ _ _ _ _ 
4 | _ _ _ _ _ _ _ _ 
3 | P _ _ _ _ P _ _ 
2 | _ P P P P _ P P 
1 | R _ B Q K B N R 
-------------------
  | A B C D E F G H 

Turn of: black
Succesful move
a6b5
8 | R N B Q K B N R 
7 | _ _ P _ P P P P 
6 | _ P _ P _ _ _ _ 
5 | _ P _ _ _ _ _ _ 
4 | _ _ _ _ _ _ _ _ 
3 | P _ _ _ _ P _ _ 
2 | _ P P P P _ P P 
1 | R _ B Q K B N R 
-------------------
  | A B C D E F G H 

We are playing as White
Move history:
a2a3
b7b6
f2f3
a7a6
b1c3
d7d6
c3b5
a6b5
8 | R N B Q K B N R 
7 | _ _ P _ P P P P 
6 | _ P _ P _ _ _ _ 
5 | _ P _ _ _ _ _ _ 
4 | _ _ _ _ _ _ _ _ 
3 | P _ _ _ _ P _ _ 
2 | _ P P P P _ P P 
1 | R _ B Q K B N R 
-------------------
  | A B C D E F G H 

It is white's turn to play.
AI's move: c2c3
Move written: c2c3
[32;1m[Game] [0mPlayer's error code: 0
[32;1m[Game] [0mChecking move validity...
[32;1m[Board] [0mInitializing board...
[32;1m[Board] [0mLoading history file `championship/lizzie-iii-logic-and-proofs/history.csv`...
[32;1m[Board] [0mLoaded 8 move(s).
[32;1m[Board] [0mLoading move file `championship/lizzie-iii-logic-and-proofs/move.csv`...
[32;1m[Board] [0mWhite player is playing c2 to c3.
[32;1m[Board] [0m
[32;1m[Board] [0m    a b c d e f g h 
[32;1m[Board] [0m  -------------------
[32;1m[Board] [0m8 ||[30;1mr[0m|[30;1mk[0m|[30;1mb[0m|[30;1mQ[0m|[30;1mK[0m|[30;1mb[0m|[30;1mk[0m|[30;1mr[0m|| 8
[32;1m[Board] [0m  -------------------
[32;1m[Board] [0m7 || |[7;1m [0m|[30;1mp[0m|[7;1m [0m|[30;1mp[0m|[30;1mp[0m|[30;1mp[0m|[30;1mp[0m|| 7
[32;1m[Board] [0m  -------------------
[32;1m[Board] [0m6 ||[7;1m [0m|[30;1mp[0m|[7;1m [0m|[30;1mp[0m|[7;1m [0m| |[7;1m [0m| || 6
[32;1m[Board] [0m  -------------------
[32;1m[Board] [0m5 || |[30;1mp[0m| |[7;1m [0m| |[7;1m [0m| |[7;1m [0m|| 5
[32;1m[Board] [0m  -------------------
[32;1m[Board] [0m4 ||[7;1m [0m| |[7;1m [0m| |[7;1m [0m| |[7;1m [0m| || 4
[32;1m[Board] [0m  -------------------
[32;1m[Board] [0m3 ||[0;1mp[0m|[7;1m [0m|[0;1mp[0m|[7;1m [0m| |[0;1mp[0m| |[7;1m [0m|| 3
[32;1m[Board] [0m  -------------------
[32;1m[Board] [0m2 ||[7;1m [0m|[0;1mp[0m|[7;1m [0m|[0;1mp[0m|[0;1mp[0m| |[0;1mp[0m|[0;1mp[0m|| 2
[32;1m[Board] [0m  -------------------
[32;1m[Board] [0m1 ||[0;1mr[0m|[7;1m [0m|[0;1mb[0m|[0;1mQ[0m|[0;1mK[0m|[0;1mb[0m|[0;1mk[0m|[0;1mr[0m|| 1
[32;1m[Board] [0m  -------------------
[32;1m[Board] [0m    a b c d e f g h
[32;1m[Board] [0m
[32;1m[Referee] [0mThis is the turn of the Black player...
[DEBUG] Input history filename: championship/lizzie-iii-logic-and-proofs/history.csv
[DEBUG] Output move file: championship/lizzie-iii-logic-and-proofs/move.csv
starting search...
searched and found best move in search: 25738
Total nodes searched: 6329
how i see the board before writing next move: Turn: Black
Enpassant: xx	Castling: WK WQ BK BQ 
   ---- ---- ---- ---- ---- ---- ---- ----
8 | r  | n  | b  | q  | k  | b  | n  | r  |
   ---- ---- ---- ---- ---- ---- ---- ----
7 |    |    | p  |    | p  | p  | p  | p  |
   ---- ---- ---- ---- ---- ---- ---- ----
6 |    | p  |    | p  |    |    |    |    |
   ---- ---- ---- ---- ---- ---- ---- ----
5 |    | p  |    |    |    |    |    |    |
   ---- ---- ---- ---- ---- ---- ---- ----
4 |    |    |    |    |    |    |    |    |
   ---- ---- ---- ---- ---- ---- ---- ----
3 | P  |    | P  |    |    | P  |    |    |
   ---- ---- ---- ---- ---- ---- ---- ----
2 |    | P  |    | P  | P  |    | P  | P  |
   ---- ---- ---- ---- ---- ---- ---- ----
1 | R  |    | B  | Q  | K  | B  | N  | R  |
   ---- ---- ---- ---- ---- ---- ---- ----
    a    b    c    d    e    f    g    h
[DEBUG] [Parser] Wrote to ouput file championship/lizzie-iii-logic-and-proofs/move.csv move : c7c6
[32;1m[Game] [0mPlayer's error code: 0
[32;1m[Game] [0mChecking move validity...
[32;1m[Board] [0mInitializing board...
[32;1m[Board] [0mLoading history file `championship/lizzie-iii-logic-and-proofs/history.csv`...
[32;1m[Board] [0mLoaded 9 move(s).
[32;1m[Board] [0mLoading move file `championship/lizzie-iii-logic-and-proofs/move.csv`...
[32;1m[Board] [0mBlack player is playing c7 to c6.
[32;1m[Board] [0m
[32;1m[Board] [0m    a b c d e f g h 
[32;1m[Board] [0m  -------------------
[32;1m[Board] [0m8 ||[30;1mr[0m|[30;1mk[0m|[30;1mb[0m|[30;1mQ[0m|[30;1mK[0m|[30;1mb[0m|[30;1mk[0m|[30;1mr[0m|| 8
[32;1m[Board] [0m  -------------------
[32;1m[Board] [0m7 || |[7;1m [0m| |[7;1m [0m|[30;1mp[0m|[30;1mp[0m|[30;1mp[0m|[30;1mp[0m|| 7
[32;1m[Board] [0m  -------------------
[32;1m[Board] [0m6 ||[7;1m [0m|[30;1mp[0m|[30;1mp[0m|[30;1mp[0m|[7;1m [0m| |[7;1m [0m| || 6
[32;1m[Board] [0m  -------------------
[32;1m[Board] [0m5 || |[30;1mp[0m| |[7;1m [0m| |[7;1m [0m| |[7;1m [0m|| 5
[32;1m[Board] [0m  -------------------
[32;1m[Board] [0m4 ||[7;1m [0m| |[7;1m [0m| |[7;1m [0m| |[7;1m [0m| || 4
[32;1m[Board] [0m  -------------------
[32;1m[Board] [0m3 ||[0;1mp[0m|[7;1m [0m|[0;1mp[0m|[7;1m [0m| |[0;1mp[0m| |[7;1m [0m|| 3
[32;1m[Board] [0m  -------------------
[32;1m[Board] [0m2 ||[7;1m [0m|[0;1mp[0m|[7;1m [0m|[0;1mp[0m|[0;1mp[0m| |[0;1mp[0m|[0;1mp[0m|| 2
[32;1m[Board] [0m  -------------------
[32;1m[Board] [0m1 ||[0;1mr[0m|[7;1m [0m|[0;1mb[0m|[0;1mQ[0m|[0;1mK[0m|[0;1mb[0m|[0;1mk[0m|[0;1mr[0m|| 1
[32;1m[Board] [0m  -------------------
[32;1m[Board] [0m    a b c d e f g h
[32;1m[Board] [0m
[32;1m[Referee] [0mThis is the turn of the White player...
Input file: championship/lizzie-iii-logic-and-proofs/history.csv
Output file: championship/lizzie-iii-logic-and-proofs/move.csv
Turn of: white
Succesful move
a2a3
8 | R N B Q K B N R 
7 | P P P P P P P P 
6 | _ _ _ _ _ _ _ _ 
5 | _ _ _ _ _ _ _ _ 
4 | _ _ _ _ _ _ _ _ 
3 | P _ _ _ _ _ _ _ 
2 | _ P P P P P P P 
1 | R N B Q K B N R 
-------------------
  | A B C D E F G H 

Turn of: black
Succesful move
b7b6
8 | R N B Q K B N R 
7 | P _ P P P P P P 
6 | _ P _ _ _ _ _ _ 
5 | _ _ _ _ _ _ _ _ 
4 | _ _ _ _ _ _ _ _ 
3 | P _ _ _ _ _ _ _ 
2 | _ P P P P P P P 
1 | R N B Q K B N R 
-------------------
  | A B C D E F G H 

Turn of: white
Succesful move
f2f3
8 | R N B Q K B N R 
7 | P _ P P P P P P 
6 | _ P _ _ _ _ _ _ 
5 | _ _ _ _ _ _ _ _ 
4 | _ _ _ _ _ _ _ _ 
3 | P _ _ _ _ P _ _ 
2 | _ P P P P _ P P 
1 | R N B Q K B N R 
-------------------
  | A B C D E F G H 

Turn of: black
Succesful move
a7a6
8 | R N B Q K B N R 
7 | _ _ P P P P P P 
6 | P P _ _ _ _ _ _ 
5 | _ _ _ _ _ _ _ _ 
4 | _ _ _ _ _ _ _ _ 
3 | P _ _ _ _ P _ _ 
2 | _ P P P P _ P P 
1 | R N B Q K B N R 
-------------------
  | A B C D E F G H 

Turn of: white
Succesful move
b1c3
8 | R N B Q K B N R 
7 | _ _ P P P P P P 
6 | P P _ _ _ _ _ _ 
5 | _ _ _ _ _ _ _ _ 
4 | _ _ _ _ _ _ _ _ 
3 | P _ N _ _ P _ _ 
2 | _ P P P P _ P P 
1 | R _ B Q K B N R 
-------------------
  | A B C D E F G H 

Turn of: black
Succesful move
d7d6
8 | R N B Q K B N R 
7 | _ _ P _ P P P P 
6 | P P _ P _ _ _ _ 
5 | _ _ _ _ _ _ _ _ 
4 | _ _ _ _ _ _ _ _ 
3 | P _ N _ _ P _ _ 
2 | _ P P P P _ P P 
1 | R _ B Q K B N R 
-------------------
  | A B C D E F G H 

Turn of: white
Succesful move
c3b5
8 | R N B Q K B N R 
7 | _ _ P _ P P P P 
6 | P P _ P _ _ _ _ 
5 | _ N _ _ _ _ _ _ 
4 | _ _ _ _ _ _ _ _ 
3 | P _ _ _ _ P _ _ 
2 | _ P P P P _ P P 
1 | R _ B Q K B N R 
-------------------
  | A B C D E F G H 

Turn of: black
Succesful move
a6b5
8 | R N B Q K B N R 
7 | _ _ P _ P P P P 
6 | _ P _ P _ _ _ _ 
5 | _ P _ _ _ _ _ _ 
4 | _ _ _ _ _ _ _ _ 
3 | P _ _ _ _ P _ _ 
2 | _ P P P P _ P P 
1 | R _ B Q K B N R 
-------------------
  | A B C D E F G H 

Turn of: white
Succesful move
c2c3
8 | R N B Q K B N R 
7 | _ _ P _ P P P P 
6 | _ P _ P _ _ _ _ 
5 | _ P _ _ _ _ _ _ 
4 | _ _ _ _ _ _ _ _ 
3 | P _ P _ _ P _ _ 
2 | _ P _ P P _ P P 
1 | R _ B Q K B N R 
-------------------
  | A B C D E F G H 

Turn of: black
Succesful move
c7c6
8 | R N B Q K B N R 
7 | _ _ _ _ P P P P 
6 | _ P P P _ _ _ _ 
5 | _ P _ _ _ _ _ _ 
4 | _ _ _ _ _ _ _ _ 
3 | P _ P _ _ P _ _ 
2 | _ P _ P P _ P P 
1 | R _ B Q K B N R 
-------------------
  | A B C D E F G H 

We are playing as White
Move history:
a2a3
b7b6
f2f3
a7a6
b1c3
d7d6
c3b5
a6b5
c2c3
c7c6
8 | R N B Q K B N R 
7 | _ _ _ _ P P P P 
6 | _ P P P _ _ _ _ 
5 | _ P _ _ _ _ _ _ 
4 | _ _ _ _ _ _ _ _ 
3 | P _ P _ _ P _ _ 
2 | _ P _ P P _ P P 
1 | R _ B Q K B N R 
-------------------
  | A B C D E F G H 

It is white's turn to play.
AI's move: e1f2
Move written: e1f2
[32;1m[Game] [0mPlayer's error code: 0
[32;1m[Game] [0mChecking move validity...
[32;1m[Board] [0mInitializing board...
[32;1m[Board] [0mLoading history file `championship/lizzie-iii-logic-and-proofs/history.csv`...
[32;1m[Board] [0mLoaded 10 move(s).
[32;1m[Board] [0mLoading move file `championship/lizzie-iii-logic-and-proofs/move.csv`...
[32;1m[Board] [0mWhite player is playing e1 to f2.
[32;1m[Board] [0m
[32;1m[Board] [0m    a b c d e f g h 
[32;1m[Board] [0m  -------------------
[32;1m[Board] [0m8 ||[30;1mr[0m|[30;1mk[0m|[30;1mb[0m|[30;1mQ[0m|[30;1mK[0m|[30;1mb[0m|[30;1mk[0m|[30;1mr[0m|| 8
[32;1m[Board] [0m  -------------------
[32;1m[Board] [0m7 || |[7;1m [0m| |[7;1m [0m|[30;1mp[0m|[30;1mp[0m|[30;1mp[0m|[30;1mp[0m|| 7
[32;1m[Board] [0m  -------------------
[32;1m[Board] [0m6 ||[7;1m [0m|[30;1mp[0m|[30;1mp[0m|[30;1mp[0m|[7;1m [0m| |[7;1m [0m| || 6
[32;1m[Board] [0m  -------------------
[32;1m[Board] [0m5 || |[30;1mp[0m| |[7;1m [0m| |[7;1m [0m| |[7;1m [0m|| 5
[32;1m[Board] [0m  -------------------
[32;1m[Board] [0m4 ||[7;1m [0m| |[7;1m [0m| |[7;1m [0m| |[7;1m [0m| || 4
[32;1m[Board] [0m  -------------------
[32;1m[Board] [0m3 ||[0;1mp[0m|[7;1m [0m|[0;1mp[0m|[7;1m [0m| |[0;1mp[0m| |[7;1m [0m|| 3
[32;1m[Board] [0m  -------------------
[32;1m[Board] [0m2 ||[7;1m [0m|[0;1mp[0m|[7;1m [0m|[0;1mp[0m|[0;1mp[0m|[0;1mK[0m|[0;1mp[0m|[0;1mp[0m|| 2
[32;1m[Board] [0m  -------------------
[32;1m[Board] [0m1 ||[0;1mr[0m|[7;1m [0m|[0;1mb[0m|[0;1mQ[0m| |[0;1mb[0m|[0;1mk[0m|[0;1mr[0m|| 1
[32;1m[Board] [0m  -------------------
[32;1m[Board] [0m    a b c d e f g h
[32;1m[Board] [0m
[32;1m[Referee] [0mThis is the turn of the Black player...
[DEBUG] Input history filename: championship/lizzie-iii-logic-and-proofs/history.csv
[DEBUG] Output move file: championship/lizzie-iii-logic-and-proofs/move.csv
starting search...
searched and found best move in search: 25868
Total nodes searched: 5055
how i see the board before writing next move: Turn: Black
Enpassant: xx	Castling: xxBK BQ 
   ---- ---- ---- ---- ---- ---- ---- ----
8 | r  | n  | b  | q  | k  | b  | n  | r  |
   ---- ---- ---- ---- ---- ---- ---- ----
7 |    |    |    |    | p  | p  | p  | p  |
   ---- ---- ---- ---- ---- ---- ---- ----
6 |    | p  | p  | p  |    |    |    |    |
   ---- ---- ---- ---- ---- ---- ---- ----
5 |    | p  |    |    |    |    |    |    |
   ---- ---- ---- ---- ---- ---- ---- ----
4 |    |    |    |    |    |    |    |    |
   ---- ---- ---- ---- ---- ---- ---- ----
3 | P  |    | P  |    |    | P  |    |    |
   ---- ---- ---- ---- ---- ---- ---- ----
2 |    | P  |    | P  | P  | K  | P  | P  |
   ---- ---- ---- ---- ---- ---- ---- ----
1 | R  |    | B  | Q  |    | B  | N  | R  |
   ---- ---- ---- ---- ---- ---- ---- ----
    a    b    c    d    e    f    g    h
[DEBUG] [Parser] Wrote to ouput file championship/lizzie-iii-logic-and-proofs/move.csv move : e7e6
[32;1m[Game] [0mPlayer's error code: 0
[32;1m[Game] [0mChecking move validity...
[32;1m[Board] [0mInitializing board...
[32;1m[Board] [0mLoading history file `championship/lizzie-iii-logic-and-proofs/history.csv`...
[32;1m[Board] [0mLoaded 11 move(s).
[32;1m[Board] [0mLoading move file `championship/lizzie-iii-logic-and-proofs/move.csv`...
[32;1m[Board] [0mBlack player is playing e7 to e6.
[32;1m[Board] [0m
[32;1m[Board] [0m    a b c d e f g h 
[32;1m[Board] [0m  -------------------
[32;1m[Board] [0m8 ||[30;1mr[0m|[30;1mk[0m|[30;1mb[0m|[30;1mQ[0m|[30;1mK[0m|[30;1mb[0m|[30;1mk[0m|[30;1mr[0m|| 8
[32;1m[Board] [0m  -------------------
[32;1m[Board] [0m7 || |[7;1m [0m| |[7;1m [0m| |[30;1mp[0m|[30;1mp[0m|[30;1mp[0m|| 7
[32;1m[Board] [0m  -------------------
[32;1m[Board] [0m6 ||[7;1m [0m|[30;1mp[0m|[30;1mp[0m|[30;1mp[0m|[30;1mp[0m| |[7;1m [0m| || 6
[32;1m[Board] [0m  -------------------
[32;1m[Board] [0m5 || |[30;1mp[0m| |[7;1m [0m| |[7;1m [0m| |[7;1m [0m|| 5
[32;1m[Board] [0m  -------------------
[32;1m[Board] [0m4 ||[7;1m [0m| |[7;1m [0m| |[7;1m [0m| |[7;1m [0m| || 4
[32;1m[Board] [0m  -------------------
[32;1m[Board] [0m3 ||[0;1mp[0m|[7;1m [0m|[0;1mp[0m|[7;1m [0m| |[0;1mp[0m| |[7;1m [0m|| 3
[32;1m[Board] [0m  -------------------
[32;1m[Board] [0m2 ||[7;1m [0m|[0;1mp[0m|[7;1m [0m|[0;1mp[0m|[0;1mp[0m|[0;1mK[0m|[0;1mp[0m|[0;1mp[0m|| 2
[32;1m[Board] [0m  -------------------
[32;1m[Board] [0m1 ||[0;1mr[0m|[7;1m [0m|[0;1mb[0m|[0;1mQ[0m| |[0;1mb[0m|[0;1mk[0m|[0;1mr[0m|| 1
[32;1m[Board] [0m  -------------------
[32;1m[Board] [0m    a b c d e f g h
[32;1m[Board] [0m
[32;1m[Referee] [0mThis is the turn of the White player...
Input file: championship/lizzie-iii-logic-and-proofs/history.csv
Output file: championship/lizzie-iii-logic-and-proofs/move.csv
Turn of: white
Succesful move
a2a3
8 | R N B Q K B N R 
7 | P P P P P P P P 
6 | _ _ _ _ _ _ _ _ 
5 | _ _ _ _ _ _ _ _ 
4 | _ _ _ _ _ _ _ _ 
3 | P _ _ _ _ _ _ _ 
2 | _ P P P P P P P 
1 | R N B Q K B N R 
-------------------
  | A B C D E F G H 

Turn of: black
Succesful move
b7b6
8 | R N B Q K B N R 
7 | P _ P P P P P P 
6 | _ P _ _ _ _ _ _ 
5 | _ _ _ _ _ _ _ _ 
4 | _ _ _ _ _ _ _ _ 
3 | P _ _ _ _ _ _ _ 
2 | _ P P P P P P P 
1 | R N B Q K B N R 
-------------------
  | A B C D E F G H 

Turn of: white
Succesful move
f2f3
8 | R N B Q K B N R 
7 | P _ P P P P P P 
6 | _ P _ _ _ _ _ _ 
5 | _ _ _ _ _ _ _ _ 
4 | _ _ _ _ _ _ _ _ 
3 | P _ _ _ _ P _ _ 
2 | _ P P P P _ P P 
1 | R N B Q K B N R 
-------------------
  | A B C D E F G H 

Turn of: black
Succesful move
a7a6
8 | R N B Q K B N R 
7 | _ _ P P P P P P 
6 | P P _ _ _ _ _ _ 
5 | _ _ _ _ _ _ _ _ 
4 | _ _ _ _ _ _ _ _ 
3 | P _ _ _ _ P _ _ 
2 | _ P P P P _ P P 
1 | R N B Q K B N R 
-------------------
  | A B C D E F G H 

Turn of: white
Succesful move
b1c3
8 | R N B Q K B N R 
7 | _ _ P P P P P P 
6 | P P _ _ _ _ _ _ 
5 | _ _ _ _ _ _ _ _ 
4 | _ _ _ _ _ _ _ _ 
3 | P _ N _ _ P _ _ 
2 | _ P P P P _ P P 
1 | R _ B Q K B N R 
-------------------
  | A B C D E F G H 

Turn of: black
Succesful move
d7d6
8 | R N B Q K B N R 
7 | _ _ P _ P P P P 
6 | P P _ P _ _ _ _ 
5 | _ _ _ _ _ _ _ _ 
4 | _ _ _ _ _ _ _ _ 
3 | P _ N _ _ P _ _ 
2 | _ P P P P _ P P 
1 | R _ B Q K B N R 
-------------------
  | A B C D E F G H 

Turn of: white
Succesful move
c3b5
8 | R N B Q K B N R 
7 | _ _ P _ P P P P 
6 | P P _ P _ _ _ _ 
5 | _ N _ _ _ _ _ _ 
4 | _ _ _ _ _ _ _ _ 
3 | P _ _ _ _ P _ _ 
2 | _ P P P P _ P P 
1 | R _ B Q K B N R 
-------------------
  | A B C D E F G H 

Turn of: black
Succesful move
a6b5
8 | R N B Q K B N R 
7 | _ _ P _ P P P P 
6 | _ P _ P _ _ _ _ 
5 | _ P _ _ _ _ _ _ 
4 | _ _ _ _ _ _ _ _ 
3 | P _ _ _ _ P _ _ 
2 | _ P P P P _ P P 
1 | R _ B Q K B N R 
-------------------
  | A B C D E F G H 

Turn of: white
Succesful move
c2c3
8 | R N B Q K B N R 
7 | _ _ P _ P P P P 
6 | _ P _ P _ _ _ _ 
5 | _ P _ _ _ _ _ _ 
4 | _ _ _ _ _ _ _ _ 
3 | P _ P _ _ P _ _ 
2 | _ P _ P P _ P P 
1 | R _ B Q K B N R 
-------------------
  | A B C D E F G H 

Turn of: black
Succesful move
c7c6
8 | R N B Q K B N R 
7 | _ _ _ _ P P P P 
6 | _ P P P _ _ _ _ 
5 | _ P _ _ _ _ _ _ 
4 | _ _ _ _ _ _ _ _ 
3 | P _ P _ _ P _ _ 
2 | _ P _ P P _ P P 
1 | R _ B Q K B N R 
-------------------
  | A B C D E F G H 

Turn of: white
Succesful move
e1f2
8 | R N B Q K B N R 
7 | _ _ _ _ P P P P 
6 | _ P P P _ _ _ _ 
5 | _ P _ _ _ _ _ _ 
4 | _ _ _ _ _ _ _ _ 
3 | P _ P _ _ P _ _ 
2 | _ P _ P P K P P 
1 | R _ B Q _ B N R 
-------------------
  | A B C D E F G H 

Turn of: black
Succesful move
e7e6
8 | R N B Q K B N R 
7 | _ _ _ _ _ P P P 
6 | _ P P P P _ _ _ 
5 | _ P _ _ _ _ _ _ 
4 | _ _ _ _ _ _ _ _ 
3 | P _ P _ _ P _ _ 
2 | _ P _ P P K P P 
1 | R _ B Q _ B N R 
-------------------
  | A B C D E F G H 

We are playing as White
Move history:
a2a3
b7b6
f2f3
a7a6
b1c3
d7d6
c3b5
a6b5
c2c3
c7c6
e1f2
e7e6
8 | R N B Q K B N R 
7 | _ _ _ _ _ P P P 
6 | _ P P P P _ _ _ 
5 | _ P _ _ _ _ _ _ 
4 | _ _ _ _ _ _ _ _ 
3 | P _ P _ _ P _ _ 
2 | _ P _ P P K P P 
1 | R _ B Q _ B N R 
-------------------
  | A B C D E F G H 

It is white's turn to play.
AI's move: f2e3
Move written: f2e3
[32;1m[Game] [0mPlayer's error code: 0
[32;1m[Game] [0mChecking move validity...
[32;1m[Board] [0mInitializing board...
[32;1m[Board] [0mLoading history file `championship/lizzie-iii-logic-and-proofs/history.csv`...
[32;1m[Board] [0mLoaded 12 move(s).
[32;1m[Board] [0mLoading move file `championship/lizzie-iii-logic-and-proofs/move.csv`...
[32;1m[Board] [0mWhite player is playing f2 to e3.
[32;1m[Board] [0m
[32;1m[Board] [0m    a b c d e f g h 
[32;1m[Board] [0m  -------------------
[32;1m[Board] [0m8 ||[30;1mr[0m|[30;1mk[0m|[30;1mb[0m|[30;1mQ[0m|[30;1mK[0m|[30;1mb[0m|[30;1mk[0m|[30;1mr[0m|| 8
[32;1m[Board] [0m  -------------------
[32;1m[Board] [0m7 || |[7;1m [0m| |[7;1m [0m| |[30;1mp[0m|[30;1mp[0m|[30;1mp[0m|| 7
[32;1m[Board] [0m  -------------------
[32;1m[Board] [0m6 ||[7;1m [0m|[30;1mp[0m|[30;1mp[0m|[30;1mp[0m|[30;1mp[0m| |[7;1m [0m| || 6
[32;1m[Board] [0m  -------------------
[32;1m[Board] [0m5 || |[30;1mp[0m| |[7;1m [0m| |[7;1m [0m| |[7;1m [0m|| 5
[32;1m[Board] [0m  -------------------
[32;1m[Board] [0m4 ||[7;1m [0m| |[7;1m [0m| |[7;1m [0m| |[7;1m [0m| || 4
[32;1m[Board] [0m  -------------------
[32;1m[Board] [0m3 ||[0;1mp[0m|[7;1m [0m|[0;1mp[0m|[7;1m [0m|[0;1mK[0m|[0;1mp[0m| |[7;1m [0m|| 3
[32;1m[Board] [0m  -------------------
[32;1m[Board] [0m2 ||[7;1m [0m|[0;1mp[0m|[7;1m [0m|[0;1mp[0m|[0;1mp[0m| |[0;1mp[0m|[0;1mp[0m|| 2
[32;1m[Board] [0m  -------------------
[32;1m[Board] [0m1 ||[0;1mr[0m|[7;1m [0m|[0;1mb[0m|[0;1mQ[0m| |[0;1mb[0m|[0;1mk[0m|[0;1mr[0m|| 1
[32;1m[Board] [0m  -------------------
[32;1m[Board] [0m    a b c d e f g h
[32;1m[Board] [0m
[32;1m[Referee] [0mThis is the turn of the Black player...
[DEBUG] Input history filename: championship/lizzie-iii-logic-and-proofs/history.csv
[DEBUG] Output move file: championship/lizzie-iii-logic-and-proofs/move.csv
starting search...
searched and found best move in search: 26323
Total nodes searched: 13991
how i see the board before writing next move: Turn: Black
Enpassant: xx	Castling: xxBK BQ 
   ---- ---- ---- ---- ---- ---- ---- ----
8 | r  | n  | b  | q  | k  | b  | n  | r  |
   ---- ---- ---- ---- ---- ---- ---- ----
7 |    |    |    |    |    | p  | p  | p  |
   ---- ---- ---- ---- ---- ---- ---- ----
6 |    | p  | p  | p  | p  |    |    |    |
   ---- ---- ---- ---- ---- ---- ---- ----
5 |    | p  |    |    |    |    |    |    |
   ---- ---- ---- ---- ---- ---- ---- ----
4 |    |    |    |    |    |    |    |    |
   ---- ---- ---- ---- ---- ---- ---- ----
3 | P  |    | P  |    | K  | P  |    |    |
   ---- ---- ---- ---- ---- ---- ---- ----
2 |    | P  |    | P  | P  |    | P  | P  |
   ---- ---- ---- ---- ---- ---- ---- ----
1 | R  |    | B  | Q  |    | B  | N  | R  |
   ---- ---- ---- ---- ---- ---- ---- ----
    a    b    c    d    e    f    g    h
[DEBUG] [Parser] Wrote to ouput file championship/lizzie-iii-logic-and-proofs/move.csv move : d6d5
[32;1m[Game] [0mPlayer's error code: 0
[32;1m[Game] [0mChecking move validity...
[32;1m[Board] [0mInitializing board...
[32;1m[Board] [0mLoading history file `championship/lizzie-iii-logic-and-proofs/history.csv`...
[32;1m[Board] [0mLoaded 13 move(s).
[32;1m[Board] [0mLoading move file `championship/lizzie-iii-logic-and-proofs/move.csv`...
[32;1m[Board] [0mBlack player is playing d6 to d5.
[32;1m[Board] [0m
[32;1m[Board] [0m    a b c d e f g h 
[32;1m[Board] [0m  -------------------
[32;1m[Board] [0m8 ||[30;1mr[0m|[30;1mk[0m|[30;1mb[0m|[30;1mQ[0m|[30;1mK[0m|[30;1mb[0m|[30;1mk[0m|[30;1mr[0m|| 8
[32;1m[Board] [0m  -------------------
[32;1m[Board] [0m7 || |[7;1m [0m| |[7;1m [0m| |[30;1mp[0m|[30;1mp[0m|[30;1mp[0m|| 7
[32;1m[Board] [0m  -------------------
[32;1m[Board] [0m6 ||[7;1m [0m|[30;1mp[0m|[30;1mp[0m| |[30;1mp[0m| |[7;1m [0m| || 6
[32;1m[Board] [0m  -------------------
[32;1m[Board] [0m5 || |[30;1mp[0m| |[30;1mp[0m| |[7;1m [0m| |[7;1m [0m|| 5
[32;1m[Board] [0m  -------------------
[32;1m[Board] [0m4 ||[7;1m [0m| |[7;1m [0m| |[7;1m [0m| |[7;1m [0m| || 4
[32;1m[Board] [0m  -------------------
[32;1m[Board] [0m3 ||[0;1mp[0m|[7;1m [0m|[0;1mp[0m|[7;1m [0m|[0;1mK[0m|[0;1mp[0m| |[7;1m [0m|| 3
[32;1m[Board] [0m  -------------------
[32;1m[Board] [0m2 ||[7;1m [0m|[0;1mp[0m|[7;1m [0m|[0;1mp[0m|[0;1mp[0m| |[0;1mp[0m|[0;1mp[0m|| 2
[32;1m[Board] [0m  -------------------
[32;1m[Board] [0m1 ||[0;1mr[0m|[7;1m [0m|[0;1mb[0m|[0;1mQ[0m| |[0;1mb[0m|[0;1mk[0m|[0;1mr[0m|| 1
[32;1m[Board] [0m  -------------------
[32;1m[Board] [0m    a b c d e f g h
[32;1m[Board] [0m
[32;1m[Referee] [0mThis is the turn of the White player...
Input file: championship/lizzie-iii-logic-and-proofs/history.csv
Output file: championship/lizzie-iii-logic-and-proofs/move.csv
Turn of: white
Succesful move
a2a3
8 | R N B Q K B N R 
7 | P P P P P P P P 
6 | _ _ _ _ _ _ _ _ 
5 | _ _ _ _ _ _ _ _ 
4 | _ _ _ _ _ _ _ _ 
3 | P _ _ _ _ _ _ _ 
2 | _ P P P P P P P 
1 | R N B Q K B N R 
-------------------
  | A B C D E F G H 

Turn of: black
Succesful move
b7b6
8 | R N B Q K B N R 
7 | P _ P P P P P P 
6 | _ P _ _ _ _ _ _ 
5 | _ _ _ _ _ _ _ _ 
4 | _ _ _ _ _ _ _ _ 
3 | P _ _ _ _ _ _ _ 
2 | _ P P P P P P P 
1 | R N B Q K B N R 
-------------------
  | A B C D E F G H 

Turn of: white
Succesful move
f2f3
8 | R N B Q K B N R 
7 | P _ P P P P P P 
6 | _ P _ _ _ _ _ _ 
5 | _ _ _ _ _ _ _ _ 
4 | _ _ _ _ _ _ _ _ 
3 | P _ _ _ _ P _ _ 
2 | _ P P P P _ P P 
1 | R N B Q K B N R 
-------------------
  | A B C D E F G H 

Turn of: black
Succesful move
a7a6
8 | R N B Q K B N R 
7 | _ _ P P P P P P 
6 | P P _ _ _ _ _ _ 
5 | _ _ _ _ _ _ _ _ 
4 | _ _ _ _ _ _ _ _ 
3 | P _ _ _ _ P _ _ 
2 | _ P P P P _ P P 
1 | R N B Q K B N R 
-------------------
  | A B C D E F G H 

Turn of: white
Succesful move
b1c3
8 | R N B Q K B N R 
7 | _ _ P P P P P P 
6 | P P _ _ _ _ _ _ 
5 | _ _ _ _ _ _ _ _ 
4 | _ _ _ _ _ _ _ _ 
3 | P _ N _ _ P _ _ 
2 | _ P P P P _ P P 
1 | R _ B Q K B N R 
-------------------
  | A B C D E F G H 

Turn of: black
Succesful move
d7d6
8 | R N B Q K B N R 
7 | _ _ P _ P P P P 
6 | P P _ P _ _ _ _ 
5 | _ _ _ _ _ _ _ _ 
4 | _ _ _ _ _ _ _ _ 
3 | P _ N _ _ P _ _ 
2 | _ P P P P _ P P 
1 | R _ B Q K B N R 
-------------------
  | A B C D E F G H 

Turn of: white
Succesful move
c3b5
8 | R N B Q K B N R 
7 | _ _ P _ P P P P 
6 | P P _ P _ _ _ _ 
5 | _ N _ _ _ _ _ _ 
4 | _ _ _ _ _ _ _ _ 
3 | P _ _ _ _ P _ _ 
2 | _ P P P P _ P P 
1 | R _ B Q K B N R 
-------------------
  | A B C D E F G H 

Turn of: black
Succesful move
a6b5
8 | R N B Q K B N R 
7 | _ _ P _ P P P P 
6 | _ P _ P _ _ _ _ 
5 | _ P _ _ _ _ _ _ 
4 | _ _ _ _ _ _ _ _ 
3 | P _ _ _ _ P _ _ 
2 | _ P P P P _ P P 
1 | R _ B Q K B N R 
-------------------
  | A B C D E F G H 

Turn of: white
Succesful move
c2c3
8 | R N B Q K B N R 
7 | _ _ P _ P P P P 
6 | _ P _ P _ _ _ _ 
5 | _ P _ _ _ _ _ _ 
4 | _ _ _ _ _ _ _ _ 
3 | P _ P _ _ P _ _ 
2 | _ P _ P P _ P P 
1 | R _ B Q K B N R 
-------------------
  | A B C D E F G H 

Turn of: black
Succesful move
c7c6
8 | R N B Q K B N R 
7 | _ _ _ _ P P P P 
6 | _ P P P _ _ _ _ 
5 | _ P _ _ _ _ _ _ 
4 | _ _ _ _ _ _ _ _ 
3 | P _ P _ _ P _ _ 
2 | _ P _ P P _ P P 
1 | R _ B Q K B N R 
-------------------
  | A B C D E F G H 

Turn of: white
Succesful move
e1f2
8 | R N B Q K B N R 
7 | _ _ _ _ P P P P 
6 | _ P P P _ _ _ _ 
5 | _ P _ _ _ _ _ _ 
4 | _ _ _ _ _ _ _ _ 
3 | P _ P _ _ P _ _ 
2 | _ P _ P P K P P 
1 | R _ B Q _ B N R 
-------------------
  | A B C D E F G H 

Turn of: black
Succesful move
e7e6
8 | R N B Q K B N R 
7 | _ _ _ _ _ P P P 
6 | _ P P P P _ _ _ 
5 | _ P _ _ _ _ _ _ 
4 | _ _ _ _ _ _ _ _ 
3 | P _ P _ _ P _ _ 
2 | _ P _ P P K P P 
1 | R _ B Q _ B N R 
-------------------
  | A B C D E F G H 

Turn of: white
Succesful move
f2e3
8 | R N B Q K B N R 
7 | _ _ _ _ _ P P P 
6 | _ P P P P _ _ _ 
5 | _ P _ _ _ _ _ _ 
4 | _ _ _ _ _ _ _ _ 
3 | P _ P _ K P _ _ 
2 | _ P _ P P _ P P 
1 | R _ B Q _ B N R 
-------------------
  | A B C D E F G H 

Turn of: black
Succesful move
d6d5
8 | R N B Q K B N R 
7 | _ _ _ _ _ P P P 
6 | _ P P _ P _ _ _ 
5 | _ P _ P _ _ _ _ 
4 | _ _ _ _ _ _ _ _ 
3 | P _ P _ K P _ _ 
2 | _ P _ P P _ P P 
1 | R _ B Q _ B N R 
-------------------
  | A B C D E F G H 

We are playing as White
Move history:
a2a3
b7b6
f2f3
a7a6
b1c3
d7d6
c3b5
a6b5
c2c3
c7c6
e1f2
e7e6
f2e3
d6d5
8 | R N B Q K B N R 
7 | _ _ _ _ _ P P P 
6 | _ P P _ P _ _ _ 
5 | _ P _ P _ _ _ _ 
4 | _ _ _ _ _ _ _ _ 
3 | P _ P _ K P _ _ 
2 | _ P _ P P _ P P 
1 | R _ B Q _ B N R 
-------------------
  | A B C D E F G H 

It is white's turn to play.
AI's move: d2d3
Move written: d2d3
[32;1m[Game] [0mPlayer's error code: 0
[32;1m[Game] [0mChecking move validity...
[32;1m[Board] [0mInitializing board...
[32;1m[Board] [0mLoading history file `championship/lizzie-iii-logic-and-proofs/history.csv`...
[32;1m[Board] [0mLoaded 14 move(s).
[32;1m[Board] [0mLoading move file `championship/lizzie-iii-logic-and-proofs/move.csv`...
[32;1m[Board] [0mWhite player is playing d2 to d3.
[32;1m[Board] [0m
[32;1m[Board] [0m    a b c d e f g h 
[32;1m[Board] [0m  -------------------
[32;1m[Board] [0m8 ||[30;1mr[0m|[30;1mk[0m|[30;1mb[0m|[30;1mQ[0m|[30;1mK[0m|[30;1mb[0m|[30;1mk[0m|[30;1mr[0m|| 8
[32;1m[Board] [0m  -------------------
[32;1m[Board] [0m7 || |[7;1m [0m| |[7;1m [0m| |[30;1mp[0m|[30;1mp[0m|[30;1mp[0m|| 7
[32;1m[Board] [0m  -------------------
[32;1m[Board] [0m6 ||[7;1m [0m|[30;1mp[0m|[30;1mp[0m| |[30;1mp[0m| |[7;1m [0m| || 6
[32;1m[Board] [0m  -------------------
[32;1m[Board] [0m5 || |[30;1mp[0m| |[30;1mp[0m| |[7;1m [0m| |[7;1m [0m|| 5
[32;1m[Board] [0m  -------------------
[32;1m[Board] [0m4 ||[7;1m [0m| |[7;1m [0m| |[7;1m [0m| |[7;1m [0m| || 4
[32;1m[Board] [0m  -------------------
[32;1m[Board] [0m3 ||[0;1mp[0m|[7;1m [0m|[0;1mp[0m|[0;1mp[0m|[0;1mK[0m|[0;1mp[0m| |[7;1m [0m|| 3
[32;1m[Board] [0m  -------------------
[32;1m[Board] [0m2 ||[7;1m [0m|[0;1mp[0m|[7;1m [0m| |[0;1mp[0m| |[0;1mp[0m|[0;1mp[0m|| 2
[32;1m[Board] [0m  -------------------
[32;1m[Board] [0m1 ||[0;1mr[0m|[7;1m [0m|[0;1mb[0m|[0;1mQ[0m| |[0;1mb[0m|[0;1mk[0m|[0;1mr[0m|| 1
[32;1m[Board] [0m  -------------------
[32;1m[Board] [0m    a b c d e f g h
[32;1m[Board] [0m
[32;1m[Referee] [0mThis is the turn of the Black player...
[DEBUG] Input history filename: championship/lizzie-iii-logic-and-proofs/history.csv
[DEBUG] Output move file: championship/lizzie-iii-logic-and-proofs/move.csv
starting search...
searched and found best move in search: 25998
Total nodes searched: 8768
how i see the board before writing next move: Turn: Black
Enpassant: xx	Castling: xxBK BQ 
   ---- ---- ---- ---- ---- ---- ---- ----
8 | r  | n  | b  | q  | k  | b  | n  | r  |
   ---- ---- ---- ---- ---- ---- ---- ----
7 |    |    |    |    |    | p  | p  | p  |
   ---- ---- ---- ---- ---- ---- ---- ----
6 |    | p  | p  |    | p  |    |    |    |
   ---- ---- ---- ---- ---- ---- ---- ----
5 |    | p  |    | p  |    |    |    |    |
   ---- ---- ---- ---- ---- ---- ---- ----
4 |    |    |    |    |    |    |    |    |
   ---- ---- ---- ---- ---- ---- ---- ----
3 | P  |    | P  | P  | K  | P  |    |    |
   ---- ---- ---- ---- ---- ---- ---- ----
2 |    | P  |    |    | P  |    | P  | P  |
   ---- ---- ---- ---- ---- ---- ---- ----
1 | R  |    | B  | Q  |    | B  | N  | R  |
   ---- ---- ---- ---- ---- ---- ---- ----
    a    b    c    d    e    f    g    h
[DEBUG] [Parser] Wrote to ouput file championship/lizzie-iii-logic-and-proofs/move.csv move : g7g6
[32;1m[Game] [0mPlayer's error code: 0
[32;1m[Game] [0mChecking move validity...
[32;1m[Board] [0mInitializing board...
[32;1m[Board] [0mLoading history file `championship/lizzie-iii-logic-and-proofs/history.csv`...
[32;1m[Board] [0mLoaded 15 move(s).
[32;1m[Board] [0mLoading move file `championship/lizzie-iii-logic-and-proofs/move.csv`...
[32;1m[Board] [0mBlack player is playing g7 to g6.
[32;1m[Board] [0m
[32;1m[Board] [0m    a b c d e f g h 
[32;1m[Board] [0m  -------------------
[32;1m[Board] [0m8 ||[30;1mr[0m|[30;1mk[0m|[30;1mb[0m|[30;1mQ[0m|[30;1mK[0m|[30;1mb[0m|[30;1mk[0m|[30;1mr[0m|| 8
[32;1m[Board] [0m  -------------------
[32;1m[Board] [0m7 || |[7;1m [0m| |[7;1m [0m| |[30;1mp[0m| |[30;1mp[0m|| 7
[32;1m[Board] [0m  -------------------
[32;1m[Board] [0m6 ||[7;1m [0m|[30;1mp[0m|[30;1mp[0m| |[30;1mp[0m| |[30;1mp[0m| || 6
[32;1m[Board] [0m  -------------------
[32;1m[Board] [0m5 || |[30;1mp[0m| |[30;1mp[0m| |[7;1m [0m| |[7;1m [0m|| 5
[32;1m[Board] [0m  -------------------
[32;1m[Board] [0m4 ||[7;1m [0m| |[7;1m [0m| |[7;1m [0m| |[7;1m [0m| || 4
[32;1m[Board] [0m  -------------------
[32;1m[Board] [0m3 ||[0;1mp[0m|[7;1m [0m|[0;1mp[0m|[0;1mp[0m|[0;1mK[0m|[0;1mp[0m| |[7;1m [0m|| 3
[32;1m[Board] [0m  -------------------
[32;1m[Board] [0m2 ||[7;1m [0m|[0;1mp[0m|[7;1m [0m| |[0;1mp[0m| |[0;1mp[0m|[0;1mp[0m|| 2
[32;1m[Board] [0m  -------------------
[32;1m[Board] [0m1 ||[0;1mr[0m|[7;1m [0m|[0;1mb[0m|[0;1mQ[0m| |[0;1mb[0m|[0;1mk[0m|[0;1mr[0m|| 1
[32;1m[Board] [0m  -------------------
[32;1m[Board] [0m    a b c d e f g h
[32;1m[Board] [0m
[32;1m[Referee] [0mThis is the turn of the White player...
Input file: championship/lizzie-iii-logic-and-proofs/history.csv
Output file: championship/lizzie-iii-logic-and-proofs/move.csv
Turn of: white
Succesful move
a2a3
8 | R N B Q K B N R 
7 | P P P P P P P P 
6 | _ _ _ _ _ _ _ _ 
5 | _ _ _ _ _ _ _ _ 
4 | _ _ _ _ _ _ _ _ 
3 | P _ _ _ _ _ _ _ 
2 | _ P P P P P P P 
1 | R N B Q K B N R 
-------------------
  | A B C D E F G H 

Turn of: black
Succesful move
b7b6
8 | R N B Q K B N R 
7 | P _ P P P P P P 
6 | _ P _ _ _ _ _ _ 
5 | _ _ _ _ _ _ _ _ 
4 | _ _ _ _ _ _ _ _ 
3 | P _ _ _ _ _ _ _ 
2 | _ P P P P P P P 
1 | R N B Q K B N R 
-------------------
  | A B C D E F G H 

Turn of: white
Succesful move
f2f3
8 | R N B Q K B N R 
7 | P _ P P P P P P 
6 | _ P _ _ _ _ _ _ 
5 | _ _ _ _ _ _ _ _ 
4 | _ _ _ _ _ _ _ _ 
3 | P _ _ _ _ P _ _ 
2 | _ P P P P _ P P 
1 | R N B Q K B N R 
-------------------
  | A B C D E F G H 

Turn of: black
Succesful move
a7a6
8 | R N B Q K B N R 
7 | _ _ P P P P P P 
6 | P P _ _ _ _ _ _ 
5 | _ _ _ _ _ _ _ _ 
4 | _ _ _ _ _ _ _ _ 
3 | P _ _ _ _ P _ _ 
2 | _ P P P P _ P P 
1 | R N B Q K B N R 
-------------------
  | A B C D E F G H 

Turn of: white
Succesful move
b1c3
8 | R N B Q K B N R 
7 | _ _ P P P P P P 
6 | P P _ _ _ _ _ _ 
5 | _ _ _ _ _ _ _ _ 
4 | _ _ _ _ _ _ _ _ 
3 | P _ N _ _ P _ _ 
2 | _ P P P P _ P P 
1 | R _ B Q K B N R 
-------------------
  | A B C D E F G H 

Turn of: black
Succesful move
d7d6
8 | R N B Q K B N R 
7 | _ _ P _ P P P P 
6 | P P _ P _ _ _ _ 
5 | _ _ _ _ _ _ _ _ 
4 | _ _ _ _ _ _ _ _ 
3 | P _ N _ _ P _ _ 
2 | _ P P P P _ P P 
1 | R _ B Q K B N R 
-------------------
  | A B C D E F G H 

Turn of: white
Succesful move
c3b5
8 | R N B Q K B N R 
7 | _ _ P _ P P P P 
6 | P P _ P _ _ _ _ 
5 | _ N _ _ _ _ _ _ 
4 | _ _ _ _ _ _ _ _ 
3 | P _ _ _ _ P _ _ 
2 | _ P P P P _ P P 
1 | R _ B Q K B N R 
-------------------
  | A B C D E F G H 

Turn of: black
Succesful move
a6b5
8 | R N B Q K B N R 
7 | _ _ P _ P P P P 
6 | _ P _ P _ _ _ _ 
5 | _ P _ _ _ _ _ _ 
4 | _ _ _ _ _ _ _ _ 
3 | P _ _ _ _ P _ _ 
2 | _ P P P P _ P P 
1 | R _ B Q K B N R 
-------------------
  | A B C D E F G H 

Turn of: white
Succesful move
c2c3
8 | R N B Q K B N R 
7 | _ _ P _ P P P P 
6 | _ P _ P _ _ _ _ 
5 | _ P _ _ _ _ _ _ 
4 | _ _ _ _ _ _ _ _ 
3 | P _ P _ _ P _ _ 
2 | _ P _ P P _ P P 
1 | R _ B Q K B N R 
-------------------
  | A B C D E F G H 

Turn of: black
Succesful move
c7c6
8 | R N B Q K B N R 
7 | _ _ _ _ P P P P 
6 | _ P P P _ _ _ _ 
5 | _ P _ _ _ _ _ _ 
4 | _ _ _ _ _ _ _ _ 
3 | P _ P _ _ P _ _ 
2 | _ P _ P P _ P P 
1 | R _ B Q K B N R 
-------------------
  | A B C D E F G H 

Turn of: white
Succesful move
e1f2
8 | R N B Q K B N R 
7 | _ _ _ _ P P P P 
6 | _ P P P _ _ _ _ 
5 | _ P _ _ _ _ _ _ 
4 | _ _ _ _ _ _ _ _ 
3 | P _ P _ _ P _ _ 
2 | _ P _ P P K P P 
1 | R _ B Q _ B N R 
-------------------
  | A B C D E F G H 

Turn of: black
Succesful move
e7e6
8 | R N B Q K B N R 
7 | _ _ _ _ _ P P P 
6 | _ P P P P _ _ _ 
5 | _ P _ _ _ _ _ _ 
4 | _ _ _ _ _ _ _ _ 
3 | P _ P _ _ P _ _ 
2 | _ P _ P P K P P 
1 | R _ B Q _ B N R 
-------------------
  | A B C D E F G H 

Turn of: white
Succesful move
f2e3
8 | R N B Q K B N R 
7 | _ _ _ _ _ P P P 
6 | _ P P P P _ _ _ 
5 | _ P _ _ _ _ _ _ 
4 | _ _ _ _ _ _ _ _ 
3 | P _ P _ K P _ _ 
2 | _ P _ P P _ P P 
1 | R _ B Q _ B N R 
-------------------
  | A B C D E F G H 

Turn of: black
Succesful move
d6d5
8 | R N B Q K B N R 
7 | _ _ _ _ _ P P P 
6 | _ P P _ P _ _ _ 
5 | _ P _ P _ _ _ _ 
4 | _ _ _ _ _ _ _ _ 
3 | P _ P _ K P _ _ 
2 | _ P _ P P _ P P 
1 | R _ B Q _ B N R 
-------------------
  | A B C D E F G H 

Turn of: white
Succesful move
d2d3
8 | R N B Q K B N R 
7 | _ _ _ _ _ P P P 
6 | _ P P _ P _ _ _ 
5 | _ P _ P _ _ _ _ 
4 | _ _ _ _ _ _ _ _ 
3 | P _ P P K P _ _ 
2 | _ P _ _ P _ P P 
1 | R _ B Q _ B N R 
-------------------
  | A B C D E F G H 

Turn of: black
Succesful move
g7g6
8 | R N B Q K B N R 
7 | _ _ _ _ _ P _ P 
6 | _ P P _ P _ P _ 
5 | _ P _ P _ _ _ _ 
4 | _ _ _ _ _ _ _ _ 
3 | P _ P P K P _ _ 
2 | _ P _ _ P _ P P 
1 | R _ B Q _ B N R 
-------------------
  | A B C D E F G H 

We are playing as White
Move history:
a2a3
b7b6
f2f3
a7a6
b1c3
d7d6
c3b5
a6b5
c2c3
c7c6
e1f2
e7e6
f2e3
d6d5
d2d3
g7g6
8 | R N B Q K B N R 
7 | _ _ _ _ _ P _ P 
6 | _ P P _ P _ P _ 
5 | _ P _ P _ _ _ _ 
4 | _ _ _ _ _ _ _ _ 
3 | P _ P P K P _ _ 
2 | _ P _ _ P _ P P 
1 | R _ B Q _ B N R 
-------------------
  | A B C D E F G H 

It is white's turn to play.
AI's move: b2b3
Move written: b2b3
[32;1m[Game] [0mPlayer's error code: 0
[32;1m[Game] [0mChecking move validity...
[32;1m[Board] [0mInitializing board...
[32;1m[Board] [0mLoading history file `championship/lizzie-iii-logic-and-proofs/history.csv`...
[32;1m[Board] [0mLoaded 16 move(s).
[32;1m[Board] [0mLoading move file `championship/lizzie-iii-logic-and-proofs/move.csv`...
[32;1m[Board] [0mWhite player is playing b2 to b3.
[32;1m[Board] [0m
[32;1m[Board] [0m    a b c d e f g h 
[32;1m[Board] [0m  -------------------
[32;1m[Board] [0m8 ||[30;1mr[0m|[30;1mk[0m|[30;1mb[0m|[30;1mQ[0m|[30;1mK[0m|[30;1mb[0m|[30;1mk[0m|[30;1mr[0m|| 8
[32;1m[Board] [0m  -------------------
[32;1m[Board] [0m7 || |[7;1m [0m| |[7;1m [0m| |[30;1mp[0m| |[30;1mp[0m|| 7
[32;1m[Board] [0m  -------------------
[32;1m[Board] [0m6 ||[7;1m [0m|[30;1mp[0m|[30;1mp[0m| |[30;1mp[0m| |[30;1mp[0m| || 6
[32;1m[Board] [0m  -------------------
[32;1m[Board] [0m5 || |[30;1mp[0m| |[30;1mp[0m| |[7;1m [0m| |[7;1m [0m|| 5
[32;1m[Board] [0m  -------------------
[32;1m[Board] [0m4 ||[7;1m [0m| |[7;1m [0m| |[7;1m [0m| |[7;1m [0m| || 4
[32;1m[Board] [0m  -------------------
[32;1m[Board] [0m3 ||[0;1mp[0m|[0;1mp[0m|[0;1mp[0m|[0;1mp[0m|[0;1mK[0m|[0;1mp[0m| |[7;1m [0m|| 3
[32;1m[Board] [0m  -------------------
[32;1m[Board] [0m2 ||[7;1m [0m| |[7;1m [0m| |[0;1mp[0m| |[0;1mp[0m|[0;1mp[0m|| 2
[32;1m[Board] [0m  -------------------
[32;1m[Board] [0m1 ||[0;1mr[0m|[7;1m [0m|[0;1mb[0m|[0;1mQ[0m| |[0;1mb[0m|[0;1mk[0m|[0;1mr[0m|| 1
[32;1m[Board] [0m  -------------------
[32;1m[Board] [0m    a b c d e f g h
[32;1m[Board] [0m
[32;1m[Referee] [0mThis is the turn of the Black player...
[DEBUG] Input history filename: championship/lizzie-iii-logic-and-proofs/history.csv
[DEBUG] Output move file: championship/lizzie-iii-logic-and-proofs/move.csv
starting search...
searched and found best move in search: 25933
Total nodes searched: 11469
how i see the board before writing next move: Turn: Black
Enpassant: xx	Castling: xxBK BQ 
   ---- ---- ---- ---- ---- ---- ---- ----
8 | r  | n  | b  | q  | k  | b  | n  | r  |
   ---- ---- ---- ---- ---- ---- ---- ----
7 |    |    |    |    |    | p  |    | p  |
   ---- ---- ---- ---- ---- ---- ---- ----
6 |    | p  | p  |    | p  |    | p  |    |
   ---- ---- ---- ---- ---- ---- ---- ----
5 |    | p  |    | p  |    |    |    |    |
   ---- ---- ---- ---- ---- ---- ---- ----
4 |    |    |    |    |    |    |    |    |
   ---- ---- ---- ---- ---- ---- ---- ----
3 | P  | P  | P  | P  | K  | P  |    |    |
   ---- ---- ---- ---- ---- ---- ---- ----
2 |    |    |    |    | P  |    | P  | P  |
   ---- ---- ---- ---- ---- ---- ---- ----
1 | R  |    | B  | Q  |    | B  | N  | R  |
   ---- ---- ---- ---- ---- ---- ---- ----
    a    b    c    d    e    f    g    h
[DEBUG] [Parser] Wrote to ouput file championship/lizzie-iii-logic-and-proofs/move.csv move : f7f6
[32;1m[Game] [0mPlayer's error code: 0
[32;1m[Game] [0mChecking move validity...
[32;1m[Board] [0mInitializing board...
[32;1m[Board] [0mLoading history file `championship/lizzie-iii-logic-and-proofs/history.csv`...
[32;1m[Board] [0mLoaded 17 move(s).
[32;1m[Board] [0mLoading move file `championship/lizzie-iii-logic-and-proofs/move.csv`...
[32;1m[Board] [0mBlack player is playing f7 to f6.
[32;1m[Board] [0m
[32;1m[Board] [0m    a b c d e f g h 
[32;1m[Board] [0m  -------------------
[32;1m[Board] [0m8 ||[30;1mr[0m|[30;1mk[0m|[30;1mb[0m|[30;1mQ[0m|[30;1mK[0m|[30;1mb[0m|[30;1mk[0m|[30;1mr[0m|| 8
[32;1m[Board] [0m  -------------------
[32;1m[Board] [0m7 || |[7;1m [0m| |[7;1m [0m| |[7;1m [0m| |[30;1mp[0m|| 7
[32;1m[Board] [0m  -------------------
[32;1m[Board] [0m6 ||[7;1m [0m|[30;1mp[0m|[30;1mp[0m| |[30;1mp[0m|[30;1mp[0m|[30;1mp[0m| || 6
[32;1m[Board] [0m  -------------------
[32;1m[Board] [0m5 || |[30;1mp[0m| |[30;1mp[0m| |[7;1m [0m| |[7;1m [0m|| 5
[32;1m[Board] [0m  -------------------
[32;1m[Board] [0m4 ||[7;1m [0m| |[7;1m [0m| |[7;1m [0m| |[7;1m [0m| || 4
[32;1m[Board] [0m  -------------------
[32;1m[Board] [0m3 ||[0;1mp[0m|[0;1mp[0m|[0;1mp[0m|[0;1mp[0m|[0;1mK[0m|[0;1mp[0m| |[7;1m [0m|| 3
[32;1m[Board] [0m  -------------------
[32;1m[Board] [0m2 ||[7;1m [0m| |[7;1m [0m| |[0;1mp[0m| |[0;1mp[0m|[0;1mp[0m|| 2
[32;1m[Board] [0m  -------------------
[32;1m[Board] [0m1 ||[0;1mr[0m|[7;1m [0m|[0;1mb[0m|[0;1mQ[0m| |[0;1mb[0m|[0;1mk[0m|[0;1mr[0m|| 1
[32;1m[Board] [0m  -------------------
[32;1m[Board] [0m    a b c d e f g h
[32;1m[Board] [0m
[32;1m[Referee] [0mThis is the turn of the White player...
Input file: championship/lizzie-iii-logic-and-proofs/history.csv
Output file: championship/lizzie-iii-logic-and-proofs/move.csv
Turn of: white
Succesful move
a2a3
8 | R N B Q K B N R 
7 | P P P P P P P P 
6 | _ _ _ _ _ _ _ _ 
5 | _ _ _ _ _ _ _ _ 
4 | _ _ _ _ _ _ _ _ 
3 | P _ _ _ _ _ _ _ 
2 | _ P P P P P P P 
1 | R N B Q K B N R 
-------------------
  | A B C D E F G H 

Turn of: black
Succesful move
b7b6
8 | R N B Q K B N R 
7 | P _ P P P P P P 
6 | _ P _ _ _ _ _ _ 
5 | _ _ _ _ _ _ _ _ 
4 | _ _ _ _ _ _ _ _ 
3 | P _ _ _ _ _ _ _ 
2 | _ P P P P P P P 
1 | R N B Q K B N R 
-------------------
  | A B C D E F G H 

Turn of: white
Succesful move
f2f3
8 | R N B Q K B N R 
7 | P _ P P P P P P 
6 | _ P _ _ _ _ _ _ 
5 | _ _ _ _ _ _ _ _ 
4 | _ _ _ _ _ _ _ _ 
3 | P _ _ _ _ P _ _ 
2 | _ P P P P _ P P 
1 | R N B Q K B N R 
-------------------
  | A B C D E F G H 

Turn of: black
Succesful move
a7a6
8 | R N B Q K B N R 
7 | _ _ P P P P P P 
6 | P P _ _ _ _ _ _ 
5 | _ _ _ _ _ _ _ _ 
4 | _ _ _ _ _ _ _ _ 
3 | P _ _ _ _ P _ _ 
2 | _ P P P P _ P P 
1 | R N B Q K B N R 
-------------------
  | A B C D E F G H 

Turn of: white
Succesful move
b1c3
8 | R N B Q K B N R 
7 | _ _ P P P P P P 
6 | P P _ _ _ _ _ _ 
5 | _ _ _ _ _ _ _ _ 
4 | _ _ _ _ _ _ _ _ 
3 | P _ N _ _ P _ _ 
2 | _ P P P P _ P P 
1 | R _ B Q K B N R 
-------------------
  | A B C D E F G H 

Turn of: black
Succesful move
d7d6
8 | R N B Q K B N R 
7 | _ _ P _ P P P P 
6 | P P _ P _ _ _ _ 
5 | _ _ _ _ _ _ _ _ 
4 | _ _ _ _ _ _ _ _ 
3 | P _ N _ _ P _ _ 
2 | _ P P P P _ P P 
1 | R _ B Q K B N R 
-------------------
  | A B C D E F G H 

Turn of: white
Succesful move
c3b5
8 | R N B Q K B N R 
7 | _ _ P _ P P P P 
6 | P P _ P _ _ _ _ 
5 | _ N _ _ _ _ _ _ 
4 | _ _ _ _ _ _ _ _ 
3 | P _ _ _ _ P _ _ 
2 | _ P P P P _ P P 
1 | R _ B Q K B N R 
-------------------
  | A B C D E F G H 

Turn of: black
Succesful move
a6b5
8 | R N B Q K B N R 
7 | _ _ P _ P P P P 
6 | _ P _ P _ _ _ _ 
5 | _ P _ _ _ _ _ _ 
4 | _ _ _ _ _ _ _ _ 
3 | P _ _ _ _ P _ _ 
2 | _ P P P P _ P P 
1 | R _ B Q K B N R 
-------------------
  | A B C D E F G H 

Turn of: white
Succesful move
c2c3
8 | R N B Q K B N R 
7 | _ _ P _ P P P P 
6 | _ P _ P _ _ _ _ 
5 | _ P _ _ _ _ _ _ 
4 | _ _ _ _ _ _ _ _ 
3 | P _ P _ _ P _ _ 
2 | _ P _ P P _ P P 
1 | R _ B Q K B N R 
-------------------
  | A B C D E F G H 

Turn of: black
Succesful move
c7c6
8 | R N B Q K B N R 
7 | _ _ _ _ P P P P 
6 | _ P P P _ _ _ _ 
5 | _ P _ _ _ _ _ _ 
4 | _ _ _ _ _ _ _ _ 
3 | P _ P _ _ P _ _ 
2 | _ P _ P P _ P P 
1 | R _ B Q K B N R 
-------------------
  | A B C D E F G H 

Turn of: white
Succesful move
e1f2
8 | R N B Q K B N R 
7 | _ _ _ _ P P P P 
6 | _ P P P _ _ _ _ 
5 | _ P _ _ _ _ _ _ 
4 | _ _ _ _ _ _ _ _ 
3 | P _ P _ _ P _ _ 
2 | _ P _ P P K P P 
1 | R _ B Q _ B N R 
-------------------
  | A B C D E F G H 

Turn of: black
Succesful move
e7e6
8 | R N B Q K B N R 
7 | _ _ _ _ _ P P P 
6 | _ P P P P _ _ _ 
5 | _ P _ _ _ _ _ _ 
4 | _ _ _ _ _ _ _ _ 
3 | P _ P _ _ P _ _ 
2 | _ P _ P P K P P 
1 | R _ B Q _ B N R 
-------------------
  | A B C D E F G H 

Turn of: white
Succesful move
f2e3
8 | R N B Q K B N R 
7 | _ _ _ _ _ P P P 
6 | _ P P P P _ _ _ 
5 | _ P _ _ _ _ _ _ 
4 | _ _ _ _ _ _ _ _ 
3 | P _ P _ K P _ _ 
2 | _ P _ P P _ P P 
1 | R _ B Q _ B N R 
-------------------
  | A B C D E F G H 

Turn of: black
Succesful move
d6d5
8 | R N B Q K B N R 
7 | _ _ _ _ _ P P P 
6 | _ P P _ P _ _ _ 
5 | _ P _ P _ _ _ _ 
4 | _ _ _ _ _ _ _ _ 
3 | P _ P _ K P _ _ 
2 | _ P _ P P _ P P 
1 | R _ B Q _ B N R 
-------------------
  | A B C D E F G H 

Turn of: white
Succesful move
d2d3
8 | R N B Q K B N R 
7 | _ _ _ _ _ P P P 
6 | _ P P _ P _ _ _ 
5 | _ P _ P _ _ _ _ 
4 | _ _ _ _ _ _ _ _ 
3 | P _ P P K P _ _ 
2 | _ P _ _ P _ P P 
1 | R _ B Q _ B N R 
-------------------
  | A B C D E F G H 

Turn of: black
Succesful move
g7g6
8 | R N B Q K B N R 
7 | _ _ _ _ _ P _ P 
6 | _ P P _ P _ P _ 
5 | _ P _ P _ _ _ _ 
4 | _ _ _ _ _ _ _ _ 
3 | P _ P P K P _ _ 
2 | _ P _ _ P _ P P 
1 | R _ B Q _ B N R 
-------------------
  | A B C D E F G H 

Turn of: white
Succesful move
b2b3
8 | R N B Q K B N R 
7 | _ _ _ _ _ P _ P 
6 | _ P P _ P _ P _ 
5 | _ P _ P _ _ _ _ 
4 | _ _ _ _ _ _ _ _ 
3 | P P P P K P _ _ 
2 | _ _ _ _ P _ P P 
1 | R _ B Q _ B N R 
-------------------
  | A B C D E F G H 

Turn of: black
Succesful move
f7f6
8 | R N B Q K B N R 
7 | _ _ _ _ _ _ _ P 
6 | _ P P _ P P P _ 
5 | _ P _ P _ _ _ _ 
4 | _ _ _ _ _ _ _ _ 
3 | P P P P K P _ _ 
2 | _ _ _ _ P _ P P 
1 | R _ B Q _ B N R 
-------------------
  | A B C D E F G H 

We are playing as White
Move history:
a2a3
b7b6
f2f3
a7a6
b1c3
d7d6
c3b5
a6b5
c2c3
c7c6
e1f2
e7e6
f2e3
d6d5
d2d3
g7g6
b2b3
f7f6
8 | R N B Q K B N R 
7 | _ _ _ _ _ _ _ P 
6 | _ P P _ P P P _ 
5 | _ P _ P _ _ _ _ 
4 | _ _ _ _ _ _ _ _ 
3 | P P P P K P _ _ 
2 | _ _ _ _ P _ P P 
1 | R _ B Q _ B N R 
-------------------
  | A B C D E F G H 

It is white's turn to play.
AI's move: c3c4
Move written: c3c4
[32;1m[Game] [0mPlayer's error code: 0
[32;1m[Game] [0mChecking move validity...
[32;1m[Board] [0mInitializing board...
[32;1m[Board] [0mLoading history file `championship/lizzie-iii-logic-and-proofs/history.csv`...
[32;1m[Board] [0mLoaded 18 move(s).
[32;1m[Board] [0mLoading move file `championship/lizzie-iii-logic-and-proofs/move.csv`...
[32;1m[Board] [0mWhite player is playing c3 to c4.
[32;1m[Board] [0m
[32;1m[Board] [0m    a b c d e f g h 
[32;1m[Board] [0m  -------------------
[32;1m[Board] [0m8 ||[30;1mr[0m|[30;1mk[0m|[30;1mb[0m|[30;1mQ[0m|[30;1mK[0m|[30;1mb[0m|[30;1mk[0m|[30;1mr[0m|| 8
[32;1m[Board] [0m  -------------------
[32;1m[Board] [0m7 || |[7;1m [0m| |[7;1m [0m| |[7;1m [0m| |[30;1mp[0m|| 7
[32;1m[Board] [0m  -------------------
[32;1m[Board] [0m6 ||[7;1m [0m|[30;1mp[0m|[30;1mp[0m| |[30;1mp[0m|[30;1mp[0m|[30;1mp[0m| || 6
[32;1m[Board] [0m  -------------------
[32;1m[Board] [0m5 || |[30;1mp[0m| |[30;1mp[0m| |[7;1m [0m| |[7;1m [0m|| 5
[32;1m[Board] [0m  -------------------
[32;1m[Board] [0m4 ||[7;1m [0m| |[0;1mp[0m| |[7;1m [0m| |[7;1m [0m| || 4
[32;1m[Board] [0m  -------------------
[32;1m[Board] [0m3 ||[0;1mp[0m|[0;1mp[0m| |[0;1mp[0m|[0;1mK[0m|[0;1mp[0m| |[7;1m [0m|| 3
[32;1m[Board] [0m  -------------------
[32;1m[Board] [0m2 ||[7;1m [0m| |[7;1m [0m| |[0;1mp[0m| |[0;1mp[0m|[0;1mp[0m|| 2
[32;1m[Board] [0m  -------------------
[32;1m[Board] [0m1 ||[0;1mr[0m|[7;1m [0m|[0;1mb[0m|[0;1mQ[0m| |[0;1mb[0m|[0;1mk[0m|[0;1mr[0m|| 1
[32;1m[Board] [0m  -------------------
[32;1m[Board] [0m    a b c d e f g h
[32;1m[Board] [0m
[32;1m[Referee] [0mThis is the turn of the Black player...
[DEBUG] Input history filename: championship/lizzie-iii-logic-and-proofs/history.csv
[DEBUG] Output move file: championship/lizzie-iii-logic-and-proofs/move.csv
starting search...
searched and found best move in search: 1075353
Total nodes searched: 12792
how i see the board before writing next move: Turn: Black
Enpassant: xx	Castling: xxBK BQ 
   ---- ---- ---- ---- ---- ---- ---- ----
8 | r  | n  | b  | q  | k  | b  | n  | r  |
   ---- ---- ---- ---- ---- ---- ---- ----
7 |    |    |    |    |    |    |    | p  |
   ---- ---- ---- ---- ---- ---- ---- ----
6 |    | p  | p  |    | p  | p  | p  |    |
   ---- ---- ---- ---- ---- ---- ---- ----
5 |    | p  |    | p  |    |    |    |    |
   ---- ---- ---- ---- ---- ---- ---- ----
4 |    |    | P  |    |    |    |    |    |
   ---- ---- ---- ---- ---- ---- ---- ----
3 | P  | P  |    | P  | K  | P  |    |    |
   ---- ---- ---- ---- ---- ---- ---- ----
2 |    |    |    |    | P  |    | P  | P  |
   ---- ---- ---- ---- ---- ---- ---- ----
1 | R  |    | B  | Q  |    | B  | N  | R  |
   ---- ---- ---- ---- ---- ---- ---- ----
    a    b    c    d    e    f    g    h
[DEBUG] [Parser] Wrote to ouput file championship/lizzie-iii-logic-and-proofs/move.csv move : b5c4
[32;1m[Game] [0mPlayer's error code: 0
[32;1m[Game] [0mChecking move validity...
[32;1m[Board] [0mInitializing board...
[32;1m[Board] [0mLoading history file `championship/lizzie-iii-logic-and-proofs/history.csv`...
[32;1m[Board] [0mLoaded 19 move(s).
[32;1m[Board] [0mLoading move file `championship/lizzie-iii-logic-and-proofs/move.csv`...
[32;1m[Board] [0mBlack player is playing b5 to c4.
[32;1m[Board] [0m[5;1mBlack Pawn is taking White Pawn.[0m
[32;1m[Board] [0m
[32;1m[Board] [0m    a b c d e f g h 
[32;1m[Board] [0m  -------------------
[32;1m[Board] [0m8 ||[30;1mr[0m|[30;1mk[0m|[30;1mb[0m|[30;1mQ[0m|[30;1mK[0m|[30;1mb[0m|[30;1mk[0m|[30;1mr[0m|| 8
[32;1m[Board] [0m  -------------------
[32;1m[Board] [0m7 || |[7;1m [0m| |[7;1m [0m| |[7;1m [0m| |[30;1mp[0m|| 7
[32;1m[Board] [0m  -------------------
[32;1m[Board] [0m6 ||[7;1m [0m|[30;1mp[0m|[30;1mp[0m| |[30;1mp[0m|[30;1mp[0m|[30;1mp[0m| || 6
[32;1m[Board] [0m  -------------------
[32;1m[Board] [0m5 || |[7;1m [0m| |[30;1mp[0m| |[7;1m [0m| |[7;1m [0m|| 5
[32;1m[Board] [0m  -------------------
[32;1m[Board] [0m4 ||[7;1m [0m| |[30;1mp[0m| |[7;1m [0m| |[7;1m [0m| || 4
[32;1m[Board] [0m  -------------------
[32;1m[Board] [0m3 ||[0;1mp[0m|[0;1mp[0m| |[0;1mp[0m|[0;1mK[0m|[0;1mp[0m| |[7;1m [0m|| 3
[32;1m[Board] [0m  -------------------
[32;1m[Board] [0m2 ||[7;1m [0m| |[7;1m [0m| |[0;1mp[0m| |[0;1mp[0m|[0;1mp[0m|| 2
[32;1m[Board] [0m  -------------------
[32;1m[Board] [0m1 ||[0;1mr[0m|[7;1m [0m|[0;1mb[0m|[0;1mQ[0m| |[0;1mb[0m|[0;1mk[0m|[0;1mr[0m|| 1
[32;1m[Board] [0m  -------------------
[32;1m[Board] [0m    a b c d e f g h
[32;1m[Board] [0m
[32;1m[Referee] [0mThis is the turn of the White player...
Input file: championship/lizzie-iii-logic-and-proofs/history.csv
Output file: championship/lizzie-iii-logic-and-proofs/move.csv
Turn of: white
Succesful move
a2a3
8 | R N B Q K B N R 
7 | P P P P P P P P 
6 | _ _ _ _ _ _ _ _ 
5 | _ _ _ _ _ _ _ _ 
4 | _ _ _ _ _ _ _ _ 
3 | P _ _ _ _ _ _ _ 
2 | _ P P P P P P P 
1 | R N B Q K B N R 
-------------------
  | A B C D E F G H 

Turn of: black
Succesful move
b7b6
8 | R N B Q K B N R 
7 | P _ P P P P P P 
6 | _ P _ _ _ _ _ _ 
5 | _ _ _ _ _ _ _ _ 
4 | _ _ _ _ _ _ _ _ 
3 | P _ _ _ _ _ _ _ 
2 | _ P P P P P P P 
1 | R N B Q K B N R 
-------------------
  | A B C D E F G H 

Turn of: white
Succesful move
f2f3
8 | R N B Q K B N R 
7 | P _ P P P P P P 
6 | _ P _ _ _ _ _ _ 
5 | _ _ _ _ _ _ _ _ 
4 | _ _ _ _ _ _ _ _ 
3 | P _ _ _ _ P _ _ 
2 | _ P P P P _ P P 
1 | R N B Q K B N R 
-------------------
  | A B C D E F G H 

Turn of: black
Succesful move
a7a6
8 | R N B Q K B N R 
7 | _ _ P P P P P P 
6 | P P _ _ _ _ _ _ 
5 | _ _ _ _ _ _ _ _ 
4 | _ _ _ _ _ _ _ _ 
3 | P _ _ _ _ P _ _ 
2 | _ P P P P _ P P 
1 | R N B Q K B N R 
-------------------
  | A B C D E F G H 

Turn of: white
Succesful move
b1c3
8 | R N B Q K B N R 
7 | _ _ P P P P P P 
6 | P P _ _ _ _ _ _ 
5 | _ _ _ _ _ _ _ _ 
4 | _ _ _ _ _ _ _ _ 
3 | P _ N _ _ P _ _ 
2 | _ P P P P _ P P 
1 | R _ B Q K B N R 
-------------------
  | A B C D E F G H 

Turn of: black
Succesful move
d7d6
8 | R N B Q K B N R 
7 | _ _ P _ P P P P 
6 | P P _ P _ _ _ _ 
5 | _ _ _ _ _ _ _ _ 
4 | _ _ _ _ _ _ _ _ 
3 | P _ N _ _ P _ _ 
2 | _ P P P P _ P P 
1 | R _ B Q K B N R 
-------------------
  | A B C D E F G H 

Turn of: white
Succesful move
c3b5
8 | R N B Q K B N R 
7 | _ _ P _ P P P P 
6 | P P _ P _ _ _ _ 
5 | _ N _ _ _ _ _ _ 
4 | _ _ _ _ _ _ _ _ 
3 | P _ _ _ _ P _ _ 
2 | _ P P P P _ P P 
1 | R _ B Q K B N R 
-------------------
  | A B C D E F G H 

Turn of: black
Succesful move
a6b5
8 | R N B Q K B N R 
7 | _ _ P _ P P P P 
6 | _ P _ P _ _ _ _ 
5 | _ P _ _ _ _ _ _ 
4 | _ _ _ _ _ _ _ _ 
3 | P _ _ _ _ P _ _ 
2 | _ P P P P _ P P 
1 | R _ B Q K B N R 
-------------------
  | A B C D E F G H 

Turn of: white
Succesful move
c2c3
8 | R N B Q K B N R 
7 | _ _ P _ P P P P 
6 | _ P _ P _ _ _ _ 
5 | _ P _ _ _ _ _ _ 
4 | _ _ _ _ _ _ _ _ 
3 | P _ P _ _ P _ _ 
2 | _ P _ P P _ P P 
1 | R _ B Q K B N R 
-------------------
  | A B C D E F G H 

Turn of: black
Succesful move
c7c6
8 | R N B Q K B N R 
7 | _ _ _ _ P P P P 
6 | _ P P P _ _ _ _ 
5 | _ P _ _ _ _ _ _ 
4 | _ _ _ _ _ _ _ _ 
3 | P _ P _ _ P _ _ 
2 | _ P _ P P _ P P 
1 | R _ B Q K B N R 
-------------------
  | A B C D E F G H 

Turn of: white
Succesful move
e1f2
8 | R N B Q K B N R 
7 | _ _ _ _ P P P P 
6 | _ P P P _ _ _ _ 
5 | _ P _ _ _ _ _ _ 
4 | _ _ _ _ _ _ _ _ 
3 | P _ P _ _ P _ _ 
2 | _ P _ P P K P P 
1 | R _ B Q _ B N R 
-------------------
  | A B C D E F G H 

Turn of: black
Succesful move
e7e6
8 | R N B Q K B N R 
7 | _ _ _ _ _ P P P 
6 | _ P P P P _ _ _ 
5 | _ P _ _ _ _ _ _ 
4 | _ _ _ _ _ _ _ _ 
3 | P _ P _ _ P _ _ 
2 | _ P _ P P K P P 
1 | R _ B Q _ B N R 
-------------------
  | A B C D E F G H 

Turn of: white
Succesful move
f2e3
8 | R N B Q K B N R 
7 | _ _ _ _ _ P P P 
6 | _ P P P P _ _ _ 
5 | _ P _ _ _ _ _ _ 
4 | _ _ _ _ _ _ _ _ 
3 | P _ P _ K P _ _ 
2 | _ P _ P P _ P P 
1 | R _ B Q _ B N R 
-------------------
  | A B C D E F G H 

Turn of: black
Succesful move
d6d5
8 | R N B Q K B N R 
7 | _ _ _ _ _ P P P 
6 | _ P P _ P _ _ _ 
5 | _ P _ P _ _ _ _ 
4 | _ _ _ _ _ _ _ _ 
[...]
2 | _ _ _ _ P _ P P 
1 | R _ B _ Q B N R 
-------------------
  | A B C D E F G H 

Turn of: black
Succesful move
d3e2
8 | R N B Q K B N R 
7 | _ _ _ _ _ _ _ P 
6 | _ P P _ P P P _ 
5 | _ _ _ P _ _ _ _ 
4 | _ P _ _ _ _ _ _ 
3 | P _ _ _ K P _ _ 
2 | _ _ _ _ P _ P P 
1 | R _ B _ Q B N R 
-------------------
  | A B C D E F G H 

Turn of: white
Succesful move
g2g4
8 | R N B Q K B N R 
7 | _ _ _ _ _ _ _ P 
6 | _ P P _ P P P _ 
5 | _ _ _ P _ _ _ _ 
4 | _ P _ _ _ _ P _ 
3 | P _ _ _ K P _ _ 
2 | _ _ _ _ P _ _ P 
1 | R _ B _ Q B N R 
-------------------
  | A B C D E F G H 

Turn of: black
Succesful move
e2f1q
8 | R N B Q K B N R 
7 | _ _ _ _ _ _ _ P 
6 | _ P P _ P P P _ 
5 | _ _ _ P _ _ _ _ 
4 | _ P _ _ _ _ P _ 
3 | P _ _ _ K P _ _ 
2 | _ _ _ _ _ _ _ P 
1 | R _ B _ Q Q N R 
-------------------
  | A B C D E F G H 

Turn of: white
Succesful move
f3f4
8 | R N B Q K B N R 
7 | _ _ _ _ _ _ _ P 
6 | _ P P _ P P P _ 
5 | _ _ _ P _ _ _ _ 
4 | _ P _ _ _ P P _ 
3 | P _ _ _ K _ _ _ 
2 | _ _ _ _ _ _ _ P 
1 | R _ B _ Q Q N R 
-------------------
  | A B C D E F G H 

Turn of: black
Succesful move
f1e1
8 | R N B Q K B N R 
7 | _ _ _ _ _ _ _ P 
6 | _ P P _ P P P _ 
5 | _ _ _ P _ _ _ _ 
4 | _ P _ _ _ P P _ 
3 | P _ _ _ K _ _ _ 
2 | _ _ _ _ _ _ _ P 
1 | R _ B _ Q _ N R 
-------------------
  | A B C D E F G H 

Turn of: white
Succesful move
g1e2
8 | R N B Q K B N R 
7 | _ _ _ _ _ _ _ P 
6 | _ P P _ P P P _ 
5 | _ _ _ P _ _ _ _ 
4 | _ P _ _ _ P P _ 
3 | P _ _ _ K _ _ _ 
2 | _ _ _ _ N _ _ P 
1 | R _ B _ Q _ _ R 
-------------------
  | A B C D E F G H 

Turn of: black
Succesful move
e1h1
8 | R N B Q K B N R 
7 | _ _ _ _ _ _ _ P 
6 | _ P P _ P P P _ 
5 | _ _ _ P _ _ _ _ 
4 | _ P _ _ _ P P _ 
3 | P _ _ _ K _ _ _ 
2 | _ _ _ _ N _ _ P 
1 | R _ B _ _ _ _ Q 
-------------------
  | A B C D E F G H 

Turn of: white
Succesful move
h2h3
8 | R N B Q K B N R 
7 | _ _ _ _ _ _ _ P 
6 | _ P P _ P P P _ 
5 | _ _ _ P _ _ _ _ 
4 | _ P _ _ _ P P _ 
3 | P _ _ _ K _ _ P 
2 | _ _ _ _ N _ _ _ 
1 | R _ B _ _ _ _ Q 
-------------------
  | A B C D E F G H 

Turn of: black
Succesful move
f8b4
8 | R N B Q K _ N R 
7 | _ _ _ _ _ _ _ P 
6 | _ P P _ P P P _ 
5 | _ _ _ P _ _ _ _ 
4 | _ B _ _ _ P P _ 
3 | P _ _ _ K _ _ P 
2 | _ _ _ _ N _ _ _ 
1 | R _ B _ _ _ _ Q 
-------------------
  | A B C D E F G H 

Turn of: white
Succesful move
g4g5
8 | R N B Q K _ N R 
7 | _ _ _ _ _ _ _ P 
6 | _ P P _ P P P _ 
5 | _ _ _ P _ _ P _ 
4 | _ B _ _ _ P _ _ 
3 | P _ _ _ K _ _ P 
2 | _ _ _ _ N _ _ _ 
1 | R _ B _ _ _ _ Q 
-------------------
  | A B C D E F G H 

Turn of: black
Succesful move
b4e1
8 | R N B Q K _ N R 
7 | _ _ _ _ _ _ _ P 
6 | _ P P _ P P P _ 
5 | _ _ _ P _ _ P _ 
4 | _ _ _ _ _ P _ _ 
3 | P _ _ _ K _ _ P 
2 | _ _ _ _ N _ _ _ 
1 | R _ B _ B _ _ Q 
-------------------
  | A B C D E F G H 

Turn of: white
Succesful move
f4f5
8 | R N B Q K _ N R 
7 | _ _ _ _ _ _ _ P 
6 | _ P P _ P P P _ 
5 | _ _ _ P _ P P _ 
4 | _ _ _ _ _ _ _ _ 
3 | P _ _ _ K _ _ P 
2 | _ _ _ _ N _ _ _ 
1 | R _ B _ B _ _ Q 
-------------------
  | A B C D E F G H 

Turn of: black
Succesful move
c8a6
8 | R N _ Q K _ N R 
7 | _ _ _ _ _ _ _ P 
6 | B P P _ P P P _ 
5 | _ _ _ P _ P P _ 
4 | _ _ _ _ _ _ _ _ 
3 | P _ _ _ K _ _ P 
2 | _ _ _ _ N _ _ _ 
1 | R _ B _ B _ _ Q 
-------------------
  | A B C D E F G H 

Turn of: white
Succesful move
e2c3
8 | R N _ Q K _ N R 
7 | _ _ _ _ _ _ _ P 
6 | B P P _ P P P _ 
5 | _ _ _ P _ P P _ 
4 | _ _ _ _ _ _ _ _ 
3 | P _ N _ K _ _ P 
2 | _ _ _ _ _ _ _ _ 
1 | R _ B _ B _ _ Q 
-------------------
  | A B C D E F G H 

Turn of: black
Succesful move
h7h6
8 | R N _ Q K _ N R 
7 | _ _ _ _ _ _ _ _ 
6 | B P P _ P P P P 
5 | _ _ _ P _ P P _ 
4 | _ _ _ _ _ _ _ _ 
3 | P _ N _ K _ _ P 
2 | _ _ _ _ _ _ _ _ 
1 | R _ B _ B _ _ Q 
-------------------
  | A B C D E F G H 

Turn of: white
Succesful move
c3a2
8 | R N _ Q K _ N R 
7 | _ _ _ _ _ _ _ _ 
6 | B P P _ P P P P 
5 | _ _ _ P _ P P _ 
4 | _ _ _ _ _ _ _ _ 
3 | P _ _ _ K _ _ P 
2 | N _ _ _ _ _ _ _ 
1 | R _ B _ B _ _ Q 
-------------------
  | A B C D E F G H 

Turn of: black
Succesful move
c6c5
8 | R N _ Q K _ N R 
7 | _ _ _ _ _ _ _ _ 
6 | B P _ _ P P P P 
5 | _ _ P P _ P P _ 
4 | _ _ _ _ _ _ _ _ 
3 | P _ _ _ K _ _ P 
2 | N _ _ _ _ _ _ _ 
1 | R _ B _ B _ _ Q 
-------------------
  | A B C D E F G H 

Turn of: white
Succesful move
c1b2
8 | R N _ Q K _ N R 
7 | _ _ _ _ _ _ _ _ 
6 | B P _ _ P P P P 
5 | _ _ P P _ P P _ 
4 | _ _ _ _ _ _ _ _ 
3 | P _ _ _ K _ _ P 
2 | N B _ _ _ _ _ _ 
1 | R _ _ _ B _ _ Q 
-------------------
  | A B C D E F G H 

Turn of: black
Succesful move
d5d4
8 | R N _ Q K _ N R 
7 | _ _ _ _ _ _ _ _ 
6 | B P _ _ P P P P 
5 | _ _ P _ _ P P _ 
4 | _ _ _ P _ _ _ _ 
3 | P _ _ _ K _ _ P 
2 | N B _ _ _ _ _ _ 
1 | R _ _ _ B _ _ Q 
-------------------
  | A B C D E F G H 

Turn of: white
Succesful move
e3f4
8 | R N _ Q K _ N R 
7 | _ _ _ _ _ _ _ _ 
6 | B P _ _ P P P P 
5 | _ _ P _ _ P P _ 
4 | _ _ _ P _ K _ _ 
3 | P _ _ _ _ _ _ P 
2 | N B _ _ _ _ _ _ 
1 | R _ _ _ B _ _ Q 
-------------------
  | A B C D E F G H 

Turn of: black
Succesful move
e6e5
8 | R N _ Q K _ N R 
7 | _ _ _ _ _ _ _ _ 
6 | B P _ _ _ P P P 
5 | _ _ P _ P P P _ 
4 | _ _ _ P _ K _ _ 
3 | P _ _ _ _ _ _ P 
2 | N B _ _ _ _ _ _ 
1 | R _ _ _ B _ _ Q 
-------------------
  | A B C D E F G H 

Turn of: white
Succesful move
f4g4
8 | R N _ Q K _ N R 
7 | _ _ _ _ _ _ _ _ 
6 | B P _ _ _ P P P 
5 | _ _ P _ P P P _ 
4 | _ _ _ P _ _ K _ 
3 | P _ _ _ _ _ _ P 
2 | N B _ _ _ _ _ _ 
1 | R _ _ _ B _ _ Q 
-------------------
  | A B C D E F G H 

Turn of: black
Succesful move
b6b5
8 | R N _ Q K _ N R 
7 | _ _ _ _ _ _ _ _ 
6 | B _ _ _ _ P P P 
5 | _ P P _ P P P _ 
4 | _ _ _ P _ _ K _ 
3 | P _ _ _ _ _ _ P 
2 | N B _ _ _ _ _ _ 
1 | R _ _ _ B _ _ Q 
-------------------
  | A B C D E F G H 

Turn of: white
Succesful move
g5f6
8 | R N _ Q K _ N R 
7 | _ _ _ _ _ _ _ _ 
6 | B _ _ _ _ P P P 
5 | _ P P _ P P _ _ 
4 | _ _ _ P _ _ K _ 
3 | P _ _ _ _ _ _ P 
2 | N B _ _ _ _ _ _ 
1 | R _ _ _ B _ _ Q 
-------------------
  | A B C D E F G H 

Turn of: black
Succesful move
g6f5
8 | R N _ Q K _ N R 
7 | _ _ _ _ _ _ _ _ 
6 | B _ _ _ _ P _ P 
5 | _ P P _ P P _ _ 
4 | _ _ _ P _ _ K _ 
3 | P _ _ _ _ _ _ P 
2 | N B _ _ _ _ _ _ 
1 | R _ _ _ B _ _ Q 
-------------------
  | A B C D E F G H 

Turn of: white
Succesful move
g4f5
8 | R N _ Q K _ N R 
7 | _ _ _ _ _ _ _ _ 
6 | B _ _ _ _ P _ P 
5 | _ P P _ P K _ _ 
4 | _ _ _ P _ _ _ _ 
3 | P _ _ _ _ _ _ P 
2 | N B _ _ _ _ _ _ 
1 | R _ _ _ B _ _ Q 
-------------------
  | A B C D E F G H 

Turn of: black
Succesful move
h6h5
8 | R N _ Q K _ N R 
7 | _ _ _ _ _ _ _ _ 
6 | B _ _ _ _ P _ _ 
5 | _ P P _ P K _ P 
4 | _ _ _ P _ _ _ _ 
3 | P _ _ _ _ _ _ P 
2 | N B _ _ _ _ _ _ 
1 | R _ _ _ B _ _ Q 
-------------------
  | A B C D E F G H 

Turn of: white
Succesful move
a1d1
8 | R N _ Q K _ N R 
7 | _ _ _ _ _ _ _ _ 
6 | B _ _ _ _ P _ _ 
5 | _ P P _ P K _ P 
4 | _ _ _ P _ _ _ _ 
3 | P _ _ _ _ _ _ P 
2 | N B _ _ _ _ _ _ 
1 | _ _ _ R B _ _ Q 
-------------------
  | A B C D E F G H 

Turn of: black
Succesful move
b5b4
8 | R N _ Q K _ N R 
7 | _ _ _ _ _ _ _ _ 
6 | B _ _ _ _ P _ _ 
5 | _ _ P _ P K _ P 
4 | _ P _ P _ _ _ _ 
3 | P _ _ _ _ _ _ P 
2 | N B _ _ _ _ _ _ 
1 | _ _ _ R B _ _ Q 
-------------------
  | A B C D E F G H 

Turn of: white
Succesful move
a3a4
8 | R N _ Q K _ N R 
7 | _ _ _ _ _ _ _ _ 
6 | B _ _ _ _ P _ _ 
5 | _ _ P _ P K _ P 
4 | P P _ P _ _ _ _ 
3 | _ _ _ _ _ _ _ P 
2 | N B _ _ _ _ _ _ 
1 | _ _ _ R B _ _ Q 
-------------------
  | A B C D E F G H 

Turn of: black
Succesful move
c5c4
8 | R N _ Q K _ N R 
7 | _ _ _ _ _ _ _ _ 
6 | B _ _ _ _ P _ _ 
5 | _ _ _ _ P K _ P 
4 | P P P P _ _ _ _ 
3 | _ _ _ _ _ _ _ P 
2 | N B _ _ _ _ _ _ 
1 | _ _ _ R B _ _ Q 
-------------------
  | A B C D E F G H 

Turn of: white
Succesful move
d1b1
8 | R N _ Q K _ N R 
7 | _ _ _ _ _ _ _ _ 
6 | B _ _ _ _ P _ _ 
5 | _ _ _ _ P K _ P 
4 | P P P P _ _ _ _ 
3 | _ _ _ _ _ _ _ P 
2 | N B _ _ _ _ _ _ 
1 | _ R _ _ B _ _ Q 
-------------------
  | A B C D E F G H 

Turn of: black
Succesful move
b4b3
8 | R N _ Q K _ N R 
7 | _ _ _ _ _ _ _ _ 
6 | B _ _ _ _ P _ _ 
5 | _ _ _ _ P K _ P 
4 | P _ P P _ _ _ _ 
3 | _ P _ _ _ _ _ P 
2 | N B _ _ _ _ _ _ 
1 | _ R _ _ B _ _ Q 
-------------------
  | A B C D E F G H 

Turn of: white
Succesful move
f6f7
8 | R N _ Q K _ N R 
7 | _ _ _ _ _ P _ _ 
6 | B _ _ _ _ _ _ _ 
5 | _ _ _ _ P K _ P 
4 | P _ P P _ _ _ _ 
3 | _ P _ _ _ _ _ P 
2 | N B _ _ _ _ _ _ 
1 | _ R _ _ B _ _ Q 
-------------------
  | A B C D E F G H 

Turn of: black
Succesful move
e8d7
8 | R N _ Q _ _ N R 
7 | _ _ _ K _ P _ _ 
6 | B _ _ _ _ _ _ _ 
5 | _ _ _ _ P K _ P 
4 | P _ P P _ _ _ _ 
3 | _ P _ _ _ _ _ P 
2 | N B _ _ _ _ _ _ 
1 | _ R _ _ B _ _ Q 
-------------------
  | A B C D E F G H 

Turn of: white
Succesful move
f7f8r
8 | R N _ Q _ R N R 
7 | _ _ _ K _ _ _ _ 
6 | B _ _ _ _ _ _ _ 
5 | _ _ _ _ P K _ P 
4 | P _ P P _ _ _ _ 
3 | _ P _ _ _ _ _ P 
2 | N B _ _ _ _ _ _ 
1 | _ R _ _ B _ _ Q 
-------------------
  | A B C D E F G H 

Turn of: black
Succesful move
g8e7
8 | R N _ Q _ R _ R 
7 | _ _ _ K N _ _ _ 
6 | B _ _ _ _ _ _ _ 
5 | _ _ _ _ P K _ P 
4 | P _ P P _ _ _ _ 
3 | _ P _ _ _ _ _ P 
2 | N B _ _ _ _ _ _ 
1 | _ R _ _ B _ _ Q 
-------------------
  | A B C D E F G H 

Turn of: white
Succesful move
f5e5
8 | R N _ Q _ R _ R 
7 | _ _ _ K N _ _ _ 
6 | B _ _ _ _ _ _ _ 
5 | _ _ _ _ K _ _ P 
4 | P _ P P _ _ _ _ 
3 | _ P _ _ _ _ _ P 
2 | N B _ _ _ _ _ _ 
1 | _ R _ _ B _ _ Q 
-------------------
  | A B C D E F G H 

Turn of: black
Succesful move
b8c6
8 | R _ _ Q _ R _ R 
7 | _ _ _ K N _ _ _ 
6 | B _ N _ _ _ _ _ 
5 | _ _ _ _ K _ _ P 
4 | P _ P P _ _ _ _ 
3 | _ P _ _ _ _ _ P 
2 | N B _ _ _ _ _ _ 
1 | _ R _ _ B _ _ Q 
-------------------
  | A B C D E F G H 

Turn of: white
Succesful move
e5f6
8 | R _ _ Q _ R _ R 
7 | _ _ _ K N _ _ _ 
6 | B _ N _ _ K _ _ 
5 | _ _ _ _ _ _ _ P 
4 | P _ P P _ _ _ _ 
3 | _ P _ _ _ _ _ P 
2 | N B _ _ _ _ _ _ 
1 | _ R _ _ B _ _ Q 
-------------------
  | A B C D E F G H 

Turn of: black
Succesful move
e7g8
8 | R _ _ Q _ R N R 
7 | _ _ _ K _ _ _ _ 
6 | B _ N _ _ K _ _ 
5 | _ _ _ _ _ _ _ P 
4 | P _ P P _ _ _ _ 
3 | _ P _ _ _ _ _ P 
2 | N B _ _ _ _ _ _ 
1 | _ R _ _ B _ _ Q 
-------------------
  | A B C D E F G H 

Turn of: white
Succesful move
f6g7
8 | R _ _ Q _ R N R 
7 | _ _ _ K _ _ K _ 
6 | B _ N _ _ _ _ _ 
5 | _ _ _ _ _ _ _ P 
4 | P _ P P _ _ _ _ 
3 | _ P _ _ _ _ _ P 
2 | N B _ _ _ _ _ _ 
1 | _ R _ _ B _ _ Q 
-------------------
  | A B C D E F G H 

Turn of: black
Succesful move
d8f8
8 | R _ _ _ _ Q N R 
7 | _ _ _ K _ _ K _ 
6 | B _ N _ _ _ _ _ 
5 | _ _ _ _ _ _ _ P 
4 | P _ P P _ _ _ _ 
3 | _ P _ _ _ _ _ P 
2 | N B _ _ _ _ _ _ 
1 | _ R _ _ B _ _ Q 
-------------------
  | A B C D E F G H 

Turn of: white
Succesful move
g7h8
8 | R _ _ _ _ Q N K 
7 | _ _ _ K _ _ _ _ 
6 | B _ N _ _ _ _ _ 
5 | _ _ _ _ _ _ _ P 
4 | P _ P P _ _ _ _ 
3 | _ P _ _ _ _ _ P 
2 | N B _ _ _ _ _ _ 
1 | _ R _ _ B _ _ Q 
-------------------
  | A B C D E F G H 

Turn of: black
Succesful move
h5h4
8 | R _ _ _ _ Q N K 
7 | _ _ _ K _ _ _ _ 
6 | B _ N _ _ _ _ _ 
5 | _ _ _ _ _ _ _ _ 
4 | P _ P P _ _ _ P 
3 | _ P _ _ _ _ _ P 
2 | N B _ _ _ _ _ _ 
1 | _ R _ _ B _ _ Q 
-------------------
  | A B C D E F G H 

Turn of: white
Succesful move
a2b4
8 | R _ _ _ _ Q N K 
7 | _ _ _ K _ _ _ _ 
6 | B _ N _ _ _ _ _ 
5 | _ _ _ _ _ _ _ _ 
4 | P N P P _ _ _ P 
3 | _ P _ _ _ _ _ P 
2 | _ B _ _ _ _ _ _ 
1 | _ R _ _ B _ _ Q 
-------------------
  | A B C D E F G H 

Turn of: black
Succesful move
c4c3
8 | R _ _ _ _ Q N K 
7 | _ _ _ K _ _ _ _ 
6 | B _ N _ _ _ _ _ 
5 | _ _ _ _ _ _ _ _ 
4 | P N _ P _ _ _ P 
3 | _ P P _ _ _ _ P 
2 | _ B _ _ _ _ _ _ 
1 | _ R _ _ B _ _ Q 
-------------------
  | A B C D E F G H 

Turn of: white
Succesful move
b1c1
8 | R _ _ _ _ Q N K 
7 | _ _ _ K _ _ _ _ 
6 | B _ N _ _ _ _ _ 
5 | _ _ _ _ _ _ _ _ 
4 | P N _ P _ _ _ P 
3 | _ P P _ _ _ _ P 
2 | _ B _ _ _ _ _ _ 
1 | _ _ R _ B _ _ Q 
-------------------
  | A B C D E F G H 

Turn of: black
Succesful move
d4d3
8 | R _ _ _ _ Q N K 
7 | _ _ _ K _ _ _ _ 
6 | B _ N _ _ _ _ _ 
5 | _ _ _ _ _ _ _ _ 
4 | P N _ _ _ _ _ P 
3 | _ P P P _ _ _ P 
2 | _ B _ _ _ _ _ _ 
1 | _ _ R _ B _ _ Q 
-------------------
  | A B C D E F G H 

Turn of: white
Succesful move
c1a1
8 | R _ _ _ _ Q N K 
7 | _ _ _ K _ _ _ _ 
6 | B _ N _ _ _ _ _ 
5 | _ _ _ _ _ _ _ _ 
4 | P N _ _ _ _ _ P 
3 | _ P P P _ _ _ P 
2 | _ B _ _ _ _ _ _ 
1 | R _ _ _ B _ _ Q 
-------------------
  | A B C D E F G H 

Turn of: black
Succesful move
c3b2
8 | R _ _ _ _ Q N K 
7 | _ _ _ K _ _ _ _ 
6 | B _ N _ _ _ _ _ 
5 | _ _ _ _ _ _ _ _ 
4 | P N _ _ _ _ _ P 
3 | _ P _ P _ _ _ P 
2 | _ P _ _ _ _ _ _ 
1 | R _ _ _ B _ _ Q 
-------------------
  | A B C D E F G H 

Turn of: white
Succesful move
a1a2
8 | R _ _ _ _ Q N K 
7 | _ _ _ K _ _ _ _ 
6 | B _ N _ _ _ _ _ 
5 | _ _ _ _ _ _ _ _ 
4 | P N _ _ _ _ _ P 
3 | _ P _ P _ _ _ P 
2 | R P _ _ _ _ _ _ 
1 | _ _ _ _ B _ _ Q 
-------------------
  | A B C D E F G H 

Turn of: black
Succesful move
b3a2
8 | R _ _ _ _ Q N K 
7 | _ _ _ K _ _ _ _ 
6 | B _ N _ _ _ _ _ 
5 | _ _ _ _ _ _ _ _ 
4 | P N _ _ _ _ _ P 
3 | _ _ _ P _ _ _ P 
2 | P P _ _ _ _ _ _ 
1 | _ _ _ _ B _ _ Q 
-------------------
  | A B C D E F G H 

Turn of: white
Succesful move
b4a2
8 | R _ _ _ _ Q N K 
7 | _ _ _ K _ _ _ _ 
6 | B _ N _ _ _ _ _ 
5 | _ _ _ _ _ _ _ _ 
4 | P _ _ _ _ _ _ P 
3 | _ _ _ P _ _ _ P 
2 | N P _ _ _ _ _ _ 
1 | _ _ _ _ B _ _ Q 
-------------------
  | A B C D E F G H 

Turn of: black
Succesful move
d3d2
8 | R _ _ _ _ Q N K 
7 | _ _ _ K _ _ _ _ 
6 | B _ N _ _ _ _ _ 
5 | _ _ _ _ _ _ _ _ 
4 | P _ _ _ _ _ _ P 
3 | _ _ _ _ _ _ _ P 
2 | N P _ P _ _ _ _ 
1 | _ _ _ _ B _ _ Q 
-------------------
  | A B C D E F G H 

Turn of: white
Succesful move
a2c1
8 | R _ _ _ _ Q N K 
7 | _ _ _ K _ _ _ _ 
6 | B _ N _ _ _ _ _ 
5 | _ _ _ _ _ _ _ _ 
4 | P _ _ _ _ _ _ P 
3 | _ _ _ _ _ _ _ P 
2 | _ P _ P _ _ _ _ 
1 | _ _ N _ B _ _ Q 
-------------------
  | A B C D E F G H 

Turn of: black
Succesful move
b2b1q
8 | R _ _ _ _ Q N K 
7 | _ _ _ K _ _ _ _ 
6 | B _ N _ _ _ _ _ 
5 | _ _ _ _ _ _ _ _ 
4 | P _ _ _ _ _ _ P 
3 | _ _ _ _ _ _ _ P 
2 | _ _ _ P _ _ _ _ 
1 | _ Q N _ B _ _ Q 
-------------------
  | A B C D E F G H 

Turn of: white
Succesful move
c1a2
8 | R _ _ _ _ Q N K 
7 | _ _ _ K _ _ _ _ 
6 | B _ N _ _ _ _ _ 
5 | _ _ _ _ _ _ _ _ 
4 | P _ _ _ _ _ _ P 
3 | _ _ _ _ _ _ _ P 
2 | N _ _ P _ _ _ _ 
1 | _ Q _ _ B _ _ Q 
-------------------
  | A B C D E F G H 

Turn of: black
Succesful move
d2d1q
8 | R _ _ _ _ Q N K 
7 | _ _ _ K _ _ _ _ 
6 | B _ N _ _ _ _ _ 
5 | _ _ _ _ _ _ _ _ 
4 | P _ _ _ _ _ _ P 
3 | _ _ _ _ _ _ _ P 
2 | N _ _ _ _ _ _ _ 
1 | _ Q _ Q B _ _ Q 
-------------------
  | A B C D E F G H 

We are playing as White
Move history:
a2a3
b7b6
f2f3
a7a6
b1c3
d7d6
c3b5
a6b5
c2c3
c7c6
e1f2
e7e6
f2e3
d6d5
d2d3
g7g6
b2b3
f7f6
c3c4
b5c4
b3b4
c4d3
d1e1
d3e2
g2g4
e2f1q
f3f4
f1e1
g1e2
e1h1
h2h3
f8b4
g4g5
b4e1
f4f5
c8a6
e2c3
h7h6
c3a2
c6c5
c1b2
d5d4
e3f4
e6e5
f4g4
b6b5
g5f6
g6f5
g4f5
h6h5
a1d1
b5b4
a3a4
c5c4
d1b1
b4b3
f6f7
e8d7
f7f8r
g8e7
f5e5
b8c6
e5f6
e7g8
f6g7
d8f8
g7h8
h5h4
a2b4
c4c3
b1c1
d4d3
c1a1
c3b2
a1a2
b3a2
b4a2
d3d2
a2c1
b2b1q
c1a2
d2d1q
8 | R _ _ _ _ Q N K 
7 | _ _ _ K _ _ _ _ 
6 | B _ N _ _ _ _ _ 
5 | _ _ _ _ _ _ _ _ 
4 | P _ _ _ _ _ _ P 
3 | _ _ _ _ _ _ _ P 
2 | N _ _ _ _ _ _ _ 
1 | _ Q _ Q B _ _ Q 
-------------------
  | A B C D E F G H 

It is white's turn to play.
AI's move: a2c1
Move written: a2c1
[32;1m[Game] [0mPlayer's error code: 0
[32;1m[Game] [0mChecking move validity...
[32;1m[Board] [0mInitializing board...
[32;1m[Board] [0mLoading history file `championship/lizzie-iii-logic-and-proofs/history.csv`...
[32;1m[Board] [0mLoaded 82 move(s).
[32;1m[Board] [0mLoading move file `championship/lizzie-iii-logic-and-proofs/move.csv`...
[32;1m[Board] [0mWhite player is playing a2 to c1.
[32;1m[Board] [0m
[32;1m[Board] [0m    a b c d e f g h 
[32;1m[Board] [0m  -------------------
[32;1m[Board] [0m8 ||[30;1mr[0m| |[7;1m [0m| |[7;1m [0m|[30;1mQ[0m|[30;1mk[0m|[0;1mK[0m|| 8
[32;1m[Board] [0m  -------------------
[32;1m[Board] [0m7 || |[7;1m [0m| |[30;1mK[0m| |[7;1m [0m| |[7;1m [0m|| 7
[32;1m[Board] [0m  -------------------
[32;1m[Board] [0m6 ||[30;1mb[0m| |[30;1mk[0m| |[7;1m [0m| |[7;1m [0m| || 6
[32;1m[Board] [0m  -------------------
[32;1m[Board] [0m5 || |[7;1m [0m| |[7;1m [0m| |[7;1m [0m| |[7;1m [0m|| 5
[32;1m[Board] [0m  -------------------
[32;1m[Board] [0m4 ||[0;1mp[0m| |[7;1m [0m| |[7;1m [0m| |[7;1m [0m|[30;1mp[0m|| 4
[32;1m[Board] [0m  -------------------
[32;1m[Board] [0m3 || |[7;1m [0m| |[7;1m [0m| |[7;1m [0m| |[0;1mp[0m|| 3
[32;1m[Board] [0m  -------------------
[32;1m[Board] [0m2 ||[7;1m [0m| |[7;1m [0m| |[7;1m [0m| |[7;1m [0m| || 2
[32;1m[Board] [0m  -------------------
[32;1m[Board] [0m1 || |[30;1mQ[0m|[0;1mk[0m|[30;1mQ[0m|[30;1mb[0m|[7;1m [0m| |[30;1mQ[0m|| 1
[32;1m[Board] [0m  -------------------
[32;1m[Board] [0m    a b c d e f g h
[32;1m[Board] [0m
[32;1m[Referee] [0mThis is the turn of the Black player...
[DEBUG] Input history filename: championship/lizzie-iii-logic-and-proofs/history.csv
[DEBUG] Output move file: championship/lizzie-iii-logic-and-proofs/move.csv
starting search...
searched and found best move in search: 29446
Total nodes searched: 2
how i see the board before writing next move: Turn: Black
Enpassant: xx	Castling: xxxx
   ---- ---- ---- ---- ---- ---- ---- ----
8 | r  |    |    |    |    | q  | n  | K  |
   ---- ---- ---- ---- ---- ---- ---- ----
7 |    |    |    | k  |    |    |    |    |
   ---- ---- ---- ---- ---- ---- ---- ----
6 | b  |    | n  |    |    |    |    |    |
   ---- ---- ---- ---- ---- ---- ---- ----
5 |    |    |    |    |    |    |    |    |
   ---- ---- ---- ---- ---- ---- ---- ----
4 | P  |    |    |    |    |    |    | p  |
   ---- ---- ---- ---- ---- ---- ---- ----
3 |    |    |    |    |    |    |    | P  |
   ---- ---- ---- ---- ---- ---- ---- ----
2 |    |    |    |    |    |    |    |    |
   ---- ---- ---- ---- ---- ---- ---- ----
1 |    | q  | N  | q  | b  |    |    | q  |
   ---- ---- ---- ---- ---- ---- ---- ----
    a    b    c    d    e    f    g    h
[DEBUG] [Parser] Wrote to ouput file championship/lizzie-iii-logic-and-proofs/move.csv move : g8e7
[32;1m[Game] [0mPlayer's error code: 0
[32;1m[Game] [0mChecking move validity...
[32;1m[Board] [0mInitializing board...
[32;1m[Board] [0mLoading history file `championship/lizzie-iii-logic-and-proofs/history.csv`...
[32;1m[Board] [0mLoaded 83 move(s).
[32;1m[Board] [0mLoading move file `championship/lizzie-iii-logic-and-proofs/move.csv`...
[32;1m[Board] [0mBlack player is playing g8 to e7.
[32;1m[Board] [0m
[32;1m[Board] [0m    a b c d e f g h 
[32;1m[Board] [0m  -------------------
[32;1m[Board] [0m8 ||[30;1mr[0m| |[7;1m [0m| |[7;1m [0m|[30;1mQ[0m|[7;1m [0m|[0;1mK[0m|| 8
[32;1m[Board] [0m  -------------------
[32;1m[Board] [0m7 || |[7;1m [0m| |[30;1mK[0m|[30;1mk[0m|[7;1m [0m| |[7;1m [0m|| 7
[32;1m[Board] [0m  -------------------
[32;1m[Board] [0m6 ||[30;1mb[0m| |[30;1mk[0m| |[7;1m [0m| |[7;1m [0m| || 6
[32;1m[Board] [0m  -------------------
[32;1m[Board] [0m5 || |[7;1m [0m| |[7;1m [0m| |[7;1m [0m| |[7;1m [0m|| 5
[32;1m[Board] [0m  -------------------
[32;1m[Board] [0m4 ||[0;1mp[0m| |[7;1m [0m| |[7;1m [0m| |[7;1m [0m|[30;1mp[0m|| 4
[32;1m[Board] [0m  -------------------
[32;1m[Board] [0m3 || |[7;1m [0m| |[7;1m [0m| |[7;1m [0m| |[0;1mp[0m|| 3
[32;1m[Board] [0m  -------------------
[32;1m[Board] [0m2 ||[7;1m [0m| |[7;1m [0m| |[7;1m [0m| |[7;1m [0m| || 2
[32;1m[Board] [0m  -------------------
[32;1m[Board] [0m1 || |[30;1mQ[0m|[0;1mk[0m|[30;1mQ[0m|[30;1mb[0m|[7;1m [0m| |[30;1mQ[0m|| 1
[32;1m[Board] [0m  -------------------
[32;1m[Board] [0m    a b c d e f g h
[32;1m[Board] [0m
[32;1m[Referee] [0mThis is the turn of the White player...
[32;1m[Board] [0m[33;1m[WARNING][0m [5;1mWhite King in checkmate![0m
[32;1m[Board] [0m[33;1m[WARNING][0m The Black player wins!
