[32;1m[Board] [0mInitializing board...
[32;1m[Board] [0m
[32;1m[Board] [0m    a b c d e f g h 
[32;1m[Board] [0m  -------------------
[32;1m[Board] [0m8 ||[30;1mr[0m|[30;1mk[0m|[30;1mb[0m|[30;1mQ[0m|[30;1mK[0m|[30;1mb[0m|[30;1mk[0m|[30;1mr[0m|| 8
[32;1m[Board] [0m  -------------------
[32;1m[Board] [0m7 ||[30;1mp[0m|[30;1mp[0m|[30;1mp[0m|[30;1mp[0m|[30;1mp[0m|[30;1mp[0m|[30;1mp[0m|[30;1mp[0m|| 7
[32;1m[Board] [0m  -------------------
[32;1m[Board] [0m6 ||[7;1m [0m| |[7;1m [0m| |[7;1m [0m| |[7;1m [0m| || 6
[32;1m[Board] [0m  -------------------
[32;1m[Board] [0m5 || |[7;1m [0m| |[7;1m [0m| |[7;1m [0m| |[7;1m [0m|| 5
[32;1m[Board] [0m  -------------------
[32;1m[Board] [0m4 ||[7;1m [0m| |[7;1m [0m| |[7;1m [0m| |[7;1m [0m| || 4
[32;1m[Board] [0m  -------------------
[32;1m[Board] [0m3 || |[7;1m [0m| |[7;1m [0m| |[7;1m [0m| |[7;1m [0m|| 3
[32;1m[Board] [0m  -------------------
[32;1m[Board] [0m2 ||[0;1mp[0m|[0;1mp[0m|[0;1mp[0m|[0;1mp[0m|[0;1mp[0m|[0;1mp[0m|[0;1mp[0m|[0;1mp[0m|| 2
[32;1m[Board] [0m  -------------------
[32;1m[Board] [0m1 ||[0;1mr[0m|[0;1mk[0m|[0;1mb[0m|[0;1mQ[0m|[0;1mK[0m|[0;1mb[0m|[0;1mk[0m|[0;1mr[0m|| 1
[32;1m[Board] [0m  -------------------
[32;1m[Board] [0m    a b c d e f g h
[32;1m[Board] [0m
[32;1m[Referee] [0mThis is the turn of the White player...
Input file: championship/lizzie-iii-beatingthehorse/history.csv
Output file: championship/lizzie-iii-beatingthehorse/move.csv
We are playing as White
Move history:
8 | R N B Q K B N R 
7 | P P P P P P P P 
6 | _ _ _ _ _ _ _ _ 
5 | _ _ _ _ _ _ _ _ 
4 | _ _ _ _ _ _ _ _ 
3 | _ _ _ _ _ _ _ _ 
2 | P P P P P P P P 
1 | R N B Q K B N R 
-------------------
  | A B C D E F G H 

It is white's turn to play.
AI's move: a2a4
Move written: a2a4
[32;1m[Game] [0mPlayer's error code: 0
[32;1m[Game] [0mChecking move validity...
[32;1m[Board] [0mInitializing board...
[32;1m[Board] [0mLoading history file `championship/lizzie-iii-beatingthehorse/history.csv`...
[32;1m[Board] [0mLoaded 0 move(s).
[32;1m[Board] [0mLoading move file `championship/lizzie-iii-beatingthehorse/move.csv`...
[32;1m[Board] [0mWhite player is playing a2 to a4.
[32;1m[Board] [0m
[32;1m[Board] [0m    a b c d e f g h 
[32;1m[Board] [0m  -------------------
[32;1m[Board] [0m8 ||[30;1mr[0m|[30;1mk[0m|[30;1mb[0m|[30;1mQ[0m|[30;1mK[0m|[30;1mb[0m|[30;1mk[0m|[30;1mr[0m|| 8
[32;1m[Board] [0m  -------------------
[32;1m[Board] [0m7 ||[30;1mp[0m|[30;1mp[0m|[30;1mp[0m|[30;1mp[0m|[30;1mp[0m|[30;1mp[0m|[30;1mp[0m|[30;1mp[0m|| 7
[32;1m[Board] [0m  -------------------
[32;1m[Board] [0m6 ||[7;1m [0m| |[7;1m [0m| |[7;1m [0m| |[7;1m [0m| || 6
[32;1m[Board] [0m  -------------------
[32;1m[Board] [0m5 || |[7;1m [0m| |[7;1m [0m| |[7;1m [0m| |[7;1m [0m|| 5
[32;1m[Board] [0m  -------------------
[32;1m[Board] [0m4 ||[0;1mp[0m| |[7;1m [0m| |[7;1m [0m| |[7;1m [0m| || 4
[32;1m[Board] [0m  -------------------
[32;1m[Board] [0m3 || |[7;1m [0m| |[7;1m [0m| |[7;1m [0m| |[7;1m [0m|| 3
[32;1m[Board] [0m  -------------------
[32;1m[Board] [0m2 ||[7;1m [0m|[0;1mp[0m|[0;1mp[0m|[0;1mp[0m|[0;1mp[0m|[0;1mp[0m|[0;1mp[0m|[0;1mp[0m|| 2
[32;1m[Board] [0m  -------------------
[32;1m[Board] [0m1 ||[0;1mr[0m|[0;1mk[0m|[0;1mb[0m|[0;1mQ[0m|[0;1mK[0m|[0;1mb[0m|[0;1mk[0m|[0;1mr[0m|| 1
[32;1m[Board] [0m  -------------------
[32;1m[Board] [0m    a b c d e f g h
[32;1m[Board] [0m
[32;1m[Referee] [0mThis is the turn of the Black player...
[32;1m[Game] [0mPlayer's error code: 0
[32;1m[Game] [0mChecking move validity...
[32;1m[Board] [0mInitializing board...
[32;1m[Board] [0mLoading history file `championship/lizzie-iii-beatingthehorse/history.csv`...
[32;1m[Board] [0mLoaded 1 move(s).
[32;1m[Board] [0mLoading move file `championship/lizzie-iii-beatingthehorse/move.csv`...
[32;1m[Board] [0mBlack player is playing e7 to e5.
[32;1m[Board] [0m
[32;1m[Board] [0m    a b c d e f g h 
[32;1m[Board] [0m  -------------------
[32;1m[Board] [0m8 ||[30;1mr[0m|[30;1mk[0m|[30;1mb[0m|[30;1mQ[0m|[30;1mK[0m|[30;1mb[0m|[30;1mk[0m|[30;1mr[0m|| 8
[32;1m[Board] [0m  -------------------
[32;1m[Board] [0m7 ||[30;1mp[0m|[30;1mp[0m|[30;1mp[0m|[30;1mp[0m| |[30;1mp[0m|[30;1mp[0m|[30;1mp[0m|| 7
[32;1m[Board] [0m  -------------------
[32;1m[Board] [0m6 ||[7;1m [0m| |[7;1m [0m| |[7;1m [0m| |[7;1m [0m| || 6
[32;1m[Board] [0m  -------------------
[32;1m[Board] [0m5 || |[7;1m [0m| |[7;1m [0m|[30;1mp[0m|[7;1m [0m| |[7;1m [0m|| 5
[32;1m[Board] [0m  -------------------
[32;1m[Board] [0m4 ||[0;1mp[0m| |[7;1m [0m| |[7;1m [0m| |[7;1m [0m| || 4
[32;1m[Board] [0m  -------------------
[32;1m[Board] [0m3 || |[7;1m [0m| |[7;1m [0m| |[7;1m [0m| |[7;1m [0m|| 3
[32;1m[Board] [0m  -------------------
[32;1m[Board] [0m2 ||[7;1m [0m|[0;1mp[0m|[0;1mp[0m|[0;1mp[0m|[0;1mp[0m|[0;1mp[0m|[0;1mp[0m|[0;1mp[0m|| 2
[32;1m[Board] [0m  -------------------
[32;1m[Board] [0m1 ||[0;1mr[0m|[0;1mk[0m|[0;1mb[0m|[0;1mQ[0m|[0;1mK[0m|[0;1mb[0m|[0;1mk[0m|[0;1mr[0m|| 1
[32;1m[Board] [0m  -------------------
[32;1m[Board] [0m    a b c d e f g h
[32;1m[Board] [0m
[32;1m[Referee] [0mThis is the turn of the White player...
Input file: championship/lizzie-iii-beatingthehorse/history.csv
Output file: championship/lizzie-iii-beatingthehorse/move.csv
Turn of: white
Succesful move
a2a4
8 | R N B Q K B N R 
7 | P P P P P P P P 
6 | _ _ _ _ _ _ _ _ 
5 | _ _ _ _ _ _ _ _ 
4 | P _ _ _ _ _ _ _ 
3 | _ _ _ _ _ _ _ _ 
2 | _ P P P P P P P 
1 | R N B Q K B N R 
-------------------
  | A B C D E F G H 

Turn of: black
Succesful move
e7e5
8 | R N B Q K B N R 
7 | P P P P _ P P P 
6 | _ _ _ _ _ _ _ _ 
5 | _ _ _ _ P _ _ _ 
4 | P _ _ _ _ _ _ _ 
3 | _ _ _ _ _ _ _ _ 
2 | _ P P P P P P P 
1 | R N B Q K B N R 
-------------------
  | A B C D E F G H 

We are playing as White
Move history:
a2a4
e7e5
8 | R N B Q K B N R 
7 | P P P P _ P P P 
6 | _ _ _ _ _ _ _ _ 
5 | _ _ _ _ P _ _ _ 
4 | P _ _ _ _ _ _ _ 
3 | _ _ _ _ _ _ _ _ 
2 | _ P P P P P P P 
1 | R N B Q K B N R 
-------------------
  | A B C D E F G H 

It is white's turn to play.
AI's move: b1a3
Move written: b1a3
[32;1m[Game] [0mPlayer's error code: 0
[32;1m[Game] [0mChecking move validity...
[32;1m[Board] [0mInitializing board...
[32;1m[Board] [0mLoading history file `championship/lizzie-iii-beatingthehorse/history.csv`...
[32;1m[Board] [0mLoaded 2 move(s).
[32;1m[Board] [0mLoading move file `championship/lizzie-iii-beatingthehorse/move.csv`...
[32;1m[Board] [0mWhite player is playing b1 to a3.
[32;1m[Board] [0m
[32;1m[Board] [0m    a b c d e f g h 
[32;1m[Board] [0m  -------------------
[32;1m[Board] [0m8 ||[30;1mr[0m|[30;1mk[0m|[30;1mb[0m|[30;1mQ[0m|[30;1mK[0m|[30;1mb[0m|[30;1mk[0m|[30;1mr[0m|| 8
[32;1m[Board] [0m  -------------------
[32;1m[Board] [0m7 ||[30;1mp[0m|[30;1mp[0m|[30;1mp[0m|[30;1mp[0m| |[30;1mp[0m|[30;1mp[0m|[30;1mp[0m|| 7
[32;1m[Board] [0m  -------------------
[32;1m[Board] [0m6 ||[7;1m [0m| |[7;1m [0m| |[7;1m [0m| |[7;1m [0m| || 6
[32;1m[Board] [0m  -------------------
[32;1m[Board] [0m5 || |[7;1m [0m| |[7;1m [0m|[30;1mp[0m|[7;1m [0m| |[7;1m [0m|| 5
[32;1m[Board] [0m  -------------------
[32;1m[Board] [0m4 ||[0;1mp[0m| |[7;1m [0m| |[7;1m [0m| |[7;1m [0m| || 4
[32;1m[Board] [0m  -------------------
[32;1m[Board] [0m3 ||[0;1mk[0m|[7;1m [0m| |[7;1m [0m| |[7;1m [0m| |[7;1m [0m|| 3
[32;1m[Board] [0m  -------------------
[32;1m[Board] [0m2 ||[7;1m [0m|[0;1mp[0m|[0;1mp[0m|[0;1mp[0m|[0;1mp[0m|[0;1mp[0m|[0;1mp[0m|[0;1mp[0m|| 2
[32;1m[Board] [0m  -------------------
[32;1m[Board] [0m1 ||[0;1mr[0m|[7;1m [0m|[0;1mb[0m|[0;1mQ[0m|[0;1mK[0m|[0;1mb[0m|[0;1mk[0m|[0;1mr[0m|| 1
[32;1m[Board] [0m  -------------------
[32;1m[Board] [0m    a b c d e f g h
[32;1m[Board] [0m
[32;1m[Referee] [0mThis is the turn of the Black player...
[32;1m[Game] [0mPlayer's error code: 0
[32;1m[Game] [0mChecking move validity...
[32;1m[Board] [0mInitializing board...
[32;1m[Board] [0mLoading history file `championship/lizzie-iii-beatingthehorse/history.csv`...
[32;1m[Board] [0mLoaded 3 move(s).
[32;1m[Board] [0mLoading move file `championship/lizzie-iii-beatingthehorse/move.csv`...
[32;1m[Board] [0mBlack player is playing f8 to c5.
[32;1m[Board] [0m
[32;1m[Board] [0m    a b c d e f g h 
[32;1m[Board] [0m  -------------------
[32;1m[Board] [0m8 ||[30;1mr[0m|[30;1mk[0m|[30;1mb[0m|[30;1mQ[0m|[30;1mK[0m| |[30;1mk[0m|[30;1mr[0m|| 8
[32;1m[Board] [0m  -------------------
[32;1m[Board] [0m7 ||[30;1mp[0m|[30;1mp[0m|[30;1mp[0m|[30;1mp[0m| |[30;1mp[0m|[30;1mp[0m|[30;1mp[0m|| 7
[32;1m[Board] [0m  -------------------
[32;1m[Board] [0m6 ||[7;1m [0m| |[7;1m [0m| |[7;1m [0m| |[7;1m [0m| || 6
[32;1m[Board] [0m  -------------------
[32;1m[Board] [0m5 || |[7;1m [0m|[30;1mb[0m|[7;1m [0m|[30;1mp[0m|[7;1m [0m| |[7;1m [0m|| 5
[32;1m[Board] [0m  -------------------
[32;1m[Board] [0m4 ||[0;1mp[0m| |[7;1m [0m| |[7;1m [0m| |[7;1m [0m| || 4
[32;1m[Board] [0m  -------------------
[32;1m[Board] [0m3 ||[0;1mk[0m|[7;1m [0m| |[7;1m [0m| |[7;1m [0m| |[7;1m [0m|| 3
[32;1m[Board] [0m  -------------------
[32;1m[Board] [0m2 ||[7;1m [0m|[0;1mp[0m|[0;1mp[0m|[0;1mp[0m|[0;1mp[0m|[0;1mp[0m|[0;1mp[0m|[0;1mp[0m|| 2
[32;1m[Board] [0m  -------------------
[32;1m[Board] [0m1 ||[0;1mr[0m|[7;1m [0m|[0;1mb[0m|[0;1mQ[0m|[0;1mK[0m|[0;1mb[0m|[0;1mk[0m|[0;1mr[0m|| 1
[32;1m[Board] [0m  -------------------
[32;1m[Board] [0m    a b c d e f g h
[32;1m[Board] [0m
[32;1m[Referee] [0mThis is the turn of the White player...
Input file: championship/lizzie-iii-beatingthehorse/history.csv
Output file: championship/lizzie-iii-beatingthehorse/move.csv
Turn of: white
Succesful move
a2a4
8 | R N B Q K B N R 
7 | P P P P P P P P 
6 | _ _ _ _ _ _ _ _ 
5 | _ _ _ _ _ _ _ _ 
4 | P _ _ _ _ _ _ _ 
3 | _ _ _ _ _ _ _ _ 
2 | _ P P P P P P P 
1 | R N B Q K B N R 
-------------------
  | A B C D E F G H 

Turn of: black
Succesful move
e7e5
8 | R N B Q K B N R 
7 | P P P P _ P P P 
6 | _ _ _ _ _ _ _ _ 
5 | _ _ _ _ P _ _ _ 
4 | P _ _ _ _ _ _ _ 
3 | _ _ _ _ _ _ _ _ 
2 | _ P P P P P P P 
1 | R N B Q K B N R 
-------------------
  | A B C D E F G H 

Turn of: white
Succesful move
b1a3
8 | R N B Q K B N R 
7 | P P P P _ P P P 
6 | _ _ _ _ _ _ _ _ 
5 | _ _ _ _ P _ _ _ 
4 | P _ _ _ _ _ _ _ 
3 | N _ _ _ _ _ _ _ 
2 | _ P P P P P P P 
1 | R _ B Q K B N R 
-------------------
  | A B C D E F G H 

Turn of: black
Succesful move
f8c5
8 | R N B Q K _ N R 
7 | P P P P _ P P P 
6 | _ _ _ _ _ _ _ _ 
5 | _ _ B _ P _ _ _ 
4 | P _ _ _ _ _ _ _ 
3 | N _ _ _ _ _ _ _ 
2 | _ P P P P P P P 
1 | R _ B Q K B N R 
-------------------
  | A B C D E F G H 

We are playing as White
Move history:
a2a4
e7e5
b1a3
f8c5
8 | R N B Q K _ N R 
7 | P P P P _ P P P 
6 | _ _ _ _ _ _ _ _ 
5 | _ _ B _ P _ _ _ 
4 | P _ _ _ _ _ _ _ 
3 | N _ _ _ _ _ _ _ 
2 | _ P P P P P P P 
1 | R _ B Q K B N R 
-------------------
  | A B C D E F G H 

It is white's turn to play.
AI's move: a3b5
Move written: a3b5
[32;1m[Game] [0mPlayer's error code: 0
[32;1m[Game] [0mChecking move validity...
[32;1m[Board] [0mInitializing board...
[32;1m[Board] [0mLoading history file `championship/lizzie-iii-beatingthehorse/history.csv`...
[32;1m[Board] [0mLoaded 4 move(s).
[32;1m[Board] [0mLoading move file `championship/lizzie-iii-beatingthehorse/move.csv`...
[32;1m[Board] [0mWhite player is playing a3 to b5.
[32;1m[Board] [0m
[32;1m[Board] [0m    a b c d e f g h 
[32;1m[Board] [0m  -------------------
[32;1m[Board] [0m8 ||[30;1mr[0m|[30;1mk[0m|[30;1mb[0m|[30;1mQ[0m|[30;1mK[0m| |[30;1mk[0m|[30;1mr[0m|| 8
[32;1m[Board] [0m  -------------------
[32;1m[Board] [0m7 ||[30;1mp[0m|[30;1mp[0m|[30;1mp[0m|[30;1mp[0m| |[30;1mp[0m|[30;1mp[0m|[30;1mp[0m|| 7
[32;1m[Board] [0m  -------------------
[32;1m[Board] [0m6 ||[7;1m [0m| |[7;1m [0m| |[7;1m [0m| |[7;1m [0m| || 6
[32;1m[Board] [0m  -------------------
[32;1m[Board] [0m5 || |[0;1mk[0m|[30;1mb[0m|[7;1m [0m|[30;1mp[0m|[7;1m [0m| |[7;1m [0m|| 5
[32;1m[Board] [0m  -------------------
[32;1m[Board] [0m4 ||[0;1mp[0m| |[7;1m [0m| |[7;1m [0m| |[7;1m [0m| || 4
[32;1m[Board] [0m  -------------------
[32;1m[Board] [0m3 || |[7;1m [0m| |[7;1m [0m| |[7;1m [0m| |[7;1m [0m|| 3
[32;1m[Board] [0m  -------------------
[32;1m[Board] [0m2 ||[7;1m [0m|[0;1mp[0m|[0;1mp[0m|[0;1mp[0m|[0;1mp[0m|[0;1mp[0m|[0;1mp[0m|[0;1mp[0m|| 2
[32;1m[Board] [0m  -------------------
[32;1m[Board] [0m1 ||[0;1mr[0m|[7;1m [0m|[0;1mb[0m|[0;1mQ[0m|[0;1mK[0m|[0;1mb[0m|[0;1mk[0m|[0;1mr[0m|| 1
[32;1m[Board] [0m  -------------------
[32;1m[Board] [0m    a b c d e f g h
[32;1m[Board] [0m
[32;1m[Referee] [0mThis is the turn of the Black player...
[32;1m[Game] [0mPlayer's error code: 0
[32;1m[Game] [0mChecking move validity...
[32;1m[Board] [0mInitializing board...
[32;1m[Board] [0mLoading history file `championship/lizzie-iii-beatingthehorse/history.csv`...
[32;1m[Board] [0mLoaded 5 move(s).
[32;1m[Board] [0mLoading move file `championship/lizzie-iii-beatingthehorse/move.csv`...
[32;1m[Board] [0mBlack player is playing d8 to h4.
[32;1m[Board] [0m
[32;1m[Board] [0m    a b c d e f g h 
[32;1m[Board] [0m  -------------------
[32;1m[Board] [0m8 ||[30;1mr[0m|[30;1mk[0m|[30;1mb[0m| |[30;1mK[0m| |[30;1mk[0m|[30;1mr[0m|| 8
[32;1m[Board] [0m  -------------------
[32;1m[Board] [0m7 ||[30;1mp[0m|[30;1mp[0m|[30;1mp[0m|[30;1mp[0m| |[30;1mp[0m|[30;1mp[0m|[30;1mp[0m|| 7
[32;1m[Board] [0m  -------------------
[32;1m[Board] [0m6 ||[7;1m [0m| |[7;1m [0m| |[7;1m [0m| |[7;1m [0m| || 6
[32;1m[Board] [0m  -------------------
[32;1m[Board] [0m5 || |[0;1mk[0m|[30;1mb[0m|[7;1m [0m|[30;1mp[0m|[7;1m [0m| |[7;1m [0m|| 5
[32;1m[Board] [0m  -------------------
[32;1m[Board] [0m4 ||[0;1mp[0m| |[7;1m [0m| |[7;1m [0m| |[7;1m [0m|[30;1mQ[0m|| 4
[32;1m[Board] [0m  -------------------
[32;1m[Board] [0m3 || |[7;1m [0m| |[7;1m [0m| |[7;1m [0m| |[7;1m [0m|| 3
[32;1m[Board] [0m  -------------------
[32;1m[Board] [0m2 ||[7;1m [0m|[0;1mp[0m|[0;1mp[0m|[0;1mp[0m|[0;1mp[0m|[0;1mp[0m|[0;1mp[0m|[0;1mp[0m|| 2
[32;1m[Board] [0m  -------------------
[32;1m[Board] [0m1 ||[0;1mr[0m|[7;1m [0m|[0;1mb[0m|[0;1mQ[0m|[0;1mK[0m|[0;1mb[0m|[0;1mk[0m|[0;1mr[0m|| 1
[32;1m[Board] [0m  -------------------
[32;1m[Board] [0m    a b c d e f g h
[32;1m[Board] [0m
[32;1m[Referee] [0mThis is the turn of the White player...
Input file: championship/lizzie-iii-beatingthehorse/history.csv
Output file: championship/lizzie-iii-beatingthehorse/move.csv
Turn of: white
Succesful move
a2a4
8 | R N B Q K B N R 
7 | P P P P P P P P 
6 | _ _ _ _ _ _ _ _ 
5 | _ _ _ _ _ _ _ _ 
4 | P _ _ _ _ _ _ _ 
3 | _ _ _ _ _ _ _ _ 
2 | _ P P P P P P P 
1 | R N B Q K B N R 
-------------------
  | A B C D E F G H 

Turn of: black
Succesful move
e7e5
8 | R N B Q K B N R 
7 | P P P P _ P P P 
6 | _ _ _ _ _ _ _ _ 
5 | _ _ _ _ P _ _ _ 
4 | P _ _ _ _ _ _ _ 
3 | _ _ _ _ _ _ _ _ 
2 | _ P P P P P P P 
1 | R N B Q K B N R 
-------------------
  | A B C D E F G H 

Turn of: white
Succesful move
b1a3
8 | R N B Q K B N R 
7 | P P P P _ P P P 
6 | _ _ _ _ _ _ _ _ 
5 | _ _ _ _ P _ _ _ 
4 | P _ _ _ _ _ _ _ 
3 | N _ _ _ _ _ _ _ 
2 | _ P P P P P P P 
1 | R _ B Q K B N R 
-------------------
  | A B C D E F G H 

Turn of: black
Succesful move
f8c5
8 | R N B Q K _ N R 
7 | P P P P _ P P P 
6 | _ _ _ _ _ _ _ _ 
5 | _ _ B _ P _ _ _ 
4 | P _ _ _ _ _ _ _ 
3 | N _ _ _ _ _ _ _ 
2 | _ P P P P P P P 
1 | R _ B Q K B N R 
-------------------
  | A B C D E F G H 

Turn of: white
Succesful move
a3b5
8 | R N B Q K _ N R 
7 | P P P P _ P P P 
6 | _ _ _ _ _ _ _ _ 
5 | _ N B _ P _ _ _ 
4 | P _ _ _ _ _ _ _ 
3 | _ _ _ _ _ _ _ _ 
2 | _ P P P P P P P 
1 | R _ B Q K B N R 
-------------------
  | A B C D E F G H 

Turn of: black
Succesful move
d8h4
8 | R N B _ K _ N R 
7 | P P P P _ P P P 
6 | _ _ _ _ _ _ _ _ 
5 | _ N B _ P _ _ _ 
4 | P _ _ _ _ _ _ Q 
3 | _ _ _ _ _ _ _ _ 
2 | _ P P P P P P P 
1 | R _ B Q K B N R 
-------------------
  | A B C D E F G H 

We are playing as White
Move history:
a2a4
e7e5
b1a3
f8c5
a3b5
d8h4
8 | R N B _ K _ N R 
7 | P P P P _ P P P 
6 | _ _ _ _ _ _ _ _ 
5 | _ N B _ P _ _ _ 
4 | P _ _ _ _ _ _ Q 
3 | _ _ _ _ _ _ _ _ 
2 | _ P P P P P P P 
1 | R _ B Q K B N R 
-------------------
  | A B C D E F G H 

It is white's turn to play.
AI's move: e2e3
Move written: e2e3
[32;1m[Game] [0mPlayer's error code: 0
[32;1m[Game] [0mChecking move validity...
[32;1m[Board] [0mInitializing board...
[32;1m[Board] [0mLoading history file `championship/lizzie-iii-beatingthehorse/history.csv`...
[32;1m[Board] [0mLoaded 6 move(s).
[32;1m[Board] [0mLoading move file `championship/lizzie-iii-beatingthehorse/move.csv`...
[32;1m[Board] [0mWhite player is playing e2 to e3.
[32;1m[Board] [0m
[32;1m[Board] [0m    a b c d e f g h 
[32;1m[Board] [0m  -------------------
[32;1m[Board] [0m8 ||[30;1mr[0m|[30;1mk[0m|[30;1mb[0m| |[30;1mK[0m| |[30;1mk[0m|[30;1mr[0m|| 8
[32;1m[Board] [0m  -------------------
[32;1m[Board] [0m7 ||[30;1mp[0m|[30;1mp[0m|[30;1mp[0m|[30;1mp[0m| |[30;1mp[0m|[30;1mp[0m|[30;1mp[0m|| 7
[32;1m[Board] [0m  -------------------
[32;1m[Board] [0m6 ||[7;1m [0m| |[7;1m [0m| |[7;1m [0m| |[7;1m [0m| || 6
[32;1m[Board] [0m  -------------------
[32;1m[Board] [0m5 || |[0;1mk[0m|[30;1mb[0m|[7;1m [0m|[30;1mp[0m|[7;1m [0m| |[7;1m [0m|| 5
[32;1m[Board] [0m  -------------------
[32;1m[Board] [0m4 ||[0;1mp[0m| |[7;1m [0m| |[7;1m [0m| |[7;1m [0m|[30;1mQ[0m|| 4
[32;1m[Board] [0m  -------------------
[32;1m[Board] [0m3 || |[7;1m [0m| |[7;1m [0m|[0;1mp[0m|[7;1m [0m| |[7;1m [0m|| 3
[32;1m[Board] [0m  -------------------
[32;1m[Board] [0m2 ||[7;1m [0m|[0;1mp[0m|[0;1mp[0m|[0;1mp[0m|[7;1m [0m|[0;1mp[0m|[0;1mp[0m|[0;1mp[0m|| 2
[32;1m[Board] [0m  -------------------
[32;1m[Board] [0m1 ||[0;1mr[0m|[7;1m [0m|[0;1mb[0m|[0;1mQ[0m|[0;1mK[0m|[0;1mb[0m|[0;1mk[0m|[0;1mr[0m|| 1
[32;1m[Board] [0m  -------------------
[32;1m[Board] [0m    a b c d e f g h
[32;1m[Board] [0m
[32;1m[Referee] [0mThis is the turn of the Black player...
43
[32;1m[Game] [0mPlayer's error code: 0
[32;1m[Game] [0mChecking move validity...
[32;1m[Board] [0mInitializing board...
[32;1m[Board] [0mLoading history file `championship/lizzie-iii-beatingthehorse/history.csv`...
[32;1m[Board] [0mLoaded 7 move(s).
[32;1m[Board] [0mLoading move file `championship/lizzie-iii-beatingthehorse/move.csv`...
[32;1m[Board] [0mBlack player is playing h4 to f2.
[32;1m[Board] [0m[5;1mBlack Queen is taking White Pawn.[0m
[32;1m[Board] [0m
[32;1m[Board] [0m    a b c d e f g h 
[32;1m[Board] [0m  -------------------
[32;1m[Board] [0m8 ||[30;1mr[0m|[30;1mk[0m|[30;1mb[0m| |[30;1mK[0m| |[30;1mk[0m|[30;1mr[0m|| 8
[32;1m[Board] [0m  -------------------
[32;1m[Board] [0m7 ||[30;1mp[0m|[30;1mp[0m|[30;1mp[0m|[30;1mp[0m| |[30;1mp[0m|[30;1mp[0m|[30;1mp[0m|| 7
[32;1m[Board] [0m  -------------------
[32;1m[Board] [0m6 ||[7;1m [0m| |[7;1m [0m| |[7;1m [0m| |[7;1m [0m| || 6
[32;1m[Board] [0m  -------------------
[32;1m[Board] [0m5 || |[0;1mk[0m|[30;1mb[0m|[7;1m [0m|[30;1mp[0m|[7;1m [0m| |[7;1m [0m|| 5
[32;1m[Board] [0m  -------------------
[32;1m[Board] [0m4 ||[0;1mp[0m| |[7;1m [0m| |[7;1m [0m| |[7;1m [0m| || 4
[32;1m[Board] [0m  -------------------
[32;1m[Board] [0m3 || |[7;1m [0m| |[7;1m [0m|[0;1mp[0m|[7;1m [0m| |[7;1m [0m|| 3
[32;1m[Board] [0m  -------------------
[32;1m[Board] [0m2 ||[7;1m [0m|[0;1mp[0m|[0;1mp[0m|[0;1mp[0m|[7;1m [0m|[30;1mQ[0m|[0;1mp[0m|[0;1mp[0m|| 2
[32;1m[Board] [0m  -------------------
[32;1m[Board] [0m1 ||[0;1mr[0m|[7;1m [0m|[0;1mb[0m|[0;1mQ[0m|[0;1mK[0m|[0;1mb[0m|[0;1mk[0m|[0;1mr[0m|| 1
[32;1m[Board] [0m  -------------------
[32;1m[Board] [0m    a b c d e f g h
[32;1m[Board] [0m
[32;1m[Referee] [0mThis is the turn of the White player...
[32;1m[Board] [0m[33;1m[WARNING][0m [5;1mWhite King in check![0m
[32;1m[Board] [0m[33;1m[WARNING][0m    Threatened by Black Queen (f2)
Input file: championship/lizzie-iii-beatingthehorse/history.csv
Output file: championship/lizzie-iii-beatingthehorse/move.csv
Turn of: white
Succesful move
a2a4
8 | R N B Q K B N R 
7 | P P P P P P P P 
6 | _ _ _ _ _ _ _ _ 
5 | _ _ _ _ _ _ _ _ 
4 | P _ _ _ _ _ _ _ 
3 | _ _ _ _ _ _ _ _ 
2 | _ P P P P P P P 
1 | R N B Q K B N R 
-------------------
  | A B C D E F G H 

Turn of: black
Succesful move
e7e5
8 | R N B Q K B N R 
7 | P P P P _ P P P 
6 | _ _ _ _ _ _ _ _ 
5 | _ _ _ _ P _ _ _ 
4 | P _ _ _ _ _ _ _ 
3 | _ _ _ _ _ _ _ _ 
2 | _ P P P P P P P 
1 | R N B Q K B N R 
-------------------
  | A B C D E F G H 

Turn of: white
Succesful move
b1a3
8 | R N B Q K B N R 
7 | P P P P _ P P P 
6 | _ _ _ _ _ _ _ _ 
5 | _ _ _ _ P _ _ _ 
4 | P _ _ _ _ _ _ _ 
3 | N _ _ _ _ _ _ _ 
2 | _ P P P P P P P 
1 | R _ B Q K B N R 
-------------------
  | A B C D E F G H 

Turn of: black
Succesful move
f8c5
8 | R N B Q K _ N R 
7 | P P P P _ P P P 
6 | _ _ _ _ _ _ _ _ 
5 | _ _ B _ P _ _ _ 
4 | P _ _ _ _ _ _ _ 
3 | N _ _ _ _ _ _ _ 
2 | _ P P P P P P P 
1 | R _ B Q K B N R 
-------------------
  | A B C D E F G H 

Turn of: white
Succesful move
a3b5
8 | R N B Q K _ N R 
7 | P P P P _ P P P 
6 | _ _ _ _ _ _ _ _ 
5 | _ N B _ P _ _ _ 
4 | P _ _ _ _ _ _ _ 
3 | _ _ _ _ _ _ _ _ 
2 | _ P P P P P P P 
1 | R _ B Q K B N R 
-------------------
  | A B C D E F G H 

Turn of: black
Succesful move
d8h4
8 | R N B _ K _ N R 
7 | P P P P _ P P P 
6 | _ _ _ _ _ _ _ _ 
5 | _ N B _ P _ _ _ 
4 | P _ _ _ _ _ _ Q 
3 | _ _ _ _ _ _ _ _ 
2 | _ P P P P P P P 
1 | R _ B Q K B N R 
-------------------
  | A B C D E F G H 

Turn of: white
Succesful move
e2e3
8 | R N B _ K _ N R 
7 | P P P P _ P P P 
6 | _ _ _ _ _ _ _ _ 
5 | _ N B _ P _ _ _ 
4 | P _ _ _ _ _ _ Q 
3 | _ _ _ _ P _ _ _ 
2 | _ P P P _ P P P 
1 | R _ B Q K B N R 
-------------------
  | A B C D E F G H 

Turn of: black
Succesful move
h4f2q
8 | R N B _ K _ N R 
7 | P P P P _ P P P 
6 | _ _ _ _ _ _ _ _ 
5 | _ N B _ P _ _ _ 
4 | P _ _ _ _ _ _ _ 
3 | _ _ _ _ P _ _ _ 
2 | _ P P P _ Q P P 
1 | R _ B Q K B N R 
-------------------
  | A B C D E F G H 

We are playing as White
Move history:
a2a4
e7e5
b1a3
f8c5
a3b5
d8h4
e2e3
h4f2q
8 | R N B _ K _ N R 
7 | P P P P _ P P P 
6 | _ _ _ _ _ _ _ _ 
5 | _ N B _ P _ _ _ 
4 | P _ _ _ _ _ _ _ 
3 | _ _ _ _ P _ _ _ 
2 | _ P P P _ Q P P 
1 | R _ B Q K B N R 
-------------------
  | A B C D E F G H 

It is white's turn to play.
AI's move: e1f2
Move written: e1f2
[32;1m[Game] [0mPlayer's error code: 0
[32;1m[Game] [0mChecking move validity...
[32;1m[Board] [0mInitializing board...
[32;1m[Board] [0mLoading history file `championship/lizzie-iii-beatingthehorse/history.csv`...
[32;1m[Board] [0mLoaded 8 move(s).
[32;1m[Board] [0mLoading move file `championship/lizzie-iii-beatingthehorse/move.csv`...
[32;1m[Board] [0mWhite player is playing e1 to f2.
[32;1m[Board] [0m[5;1mWhite King is taking Black Queen.[0m
[32;1m[Board] [0m
[32;1m[Board] [0m    a b c d e f g h 
[32;1m[Board] [0m  -------------------
[32;1m[Board] [0m8 ||[30;1mr[0m|[30;1mk[0m|[30;1mb[0m| |[30;1mK[0m| |[30;1mk[0m|[30;1mr[0m|| 8
[32;1m[Board] [0m  -------------------
[32;1m[Board] [0m7 ||[30;1mp[0m|[30;1mp[0m|[30;1mp[0m|[30;1mp[0m| |[30;1mp[0m|[30;1mp[0m|[30;1mp[0m|| 7
[32;1m[Board] [0m  -------------------
[32;1m[Board] [0m6 ||[7;1m [0m| |[7;1m [0m| |[7;1m [0m| |[7;1m [0m| || 6
[32;1m[Board] [0m  -------------------
[32;1m[Board] [0m5 || |[0;1mk[0m|[30;1mb[0m|[7;1m [0m|[30;1mp[0m|[7;1m [0m| |[7;1m [0m|| 5
[32;1m[Board] [0m  -------------------
[32;1m[Board] [0m4 ||[0;1mp[0m| |[7;1m [0m| |[7;1m [0m| |[7;1m [0m| || 4
[32;1m[Board] [0m  -------------------
[32;1m[Board] [0m3 || |[7;1m [0m| |[7;1m [0m|[0;1mp[0m|[7;1m [0m| |[7;1m [0m|| 3
[32;1m[Board] [0m  -------------------
[32;1m[Board] [0m2 ||[7;1m [0m|[0;1mp[0m|[0;1mp[0m|[0;1mp[0m|[7;1m [0m|[0;1mK[0m|[0;1mp[0m|[0;1mp[0m|| 2
[32;1m[Board] [0m  -------------------
[32;1m[Board] [0m1 ||[0;1mr[0m|[7;1m [0m|[0;1mb[0m|[0;1mQ[0m| |[0;1mb[0m|[0;1mk[0m|[0;1mr[0m|| 1
[32;1m[Board] [0m  -------------------
[32;1m[Board] [0m    a b c d e f g h
[32;1m[Board] [0m
[32;1m[Referee] [0mThis is the turn of the Black player...
17
[32;1m[Game] [0mPlayer's error code: 0
[32;1m[Game] [0mChecking move validity...
[32;1m[Board] [0mInitializing board...
[32;1m[Board] [0mLoading history file `championship/lizzie-iii-beatingthehorse/history.csv`...
[32;1m[Board] [0mLoaded 9 move(s).
[32;1m[Board] [0mLoading move file `championship/lizzie-iii-beatingthehorse/move.csv`...
[32;1m[Board] [0mBlack player is playing a7 to a5.
[32;1m[Board] [0m
[32;1m[Board] [0m    a b c d e f g h 
[32;1m[Board] [0m  -------------------
[32;1m[Board] [0m8 ||[30;1mr[0m|[30;1mk[0m|[30;1mb[0m| |[30;1mK[0m| |[30;1mk[0m|[30;1mr[0m|| 8
[32;1m[Board] [0m  -------------------
[32;1m[Board] [0m7 || |[30;1mp[0m|[30;1mp[0m|[30;1mp[0m| |[30;1mp[0m|[30;1mp[0m|[30;1mp[0m|| 7
[32;1m[Board] [0m  -------------------
[32;1m[Board] [0m6 ||[7;1m [0m| |[7;1m [0m| |[7;1m [0m| |[7;1m [0m| || 6
[32;1m[Board] [0m  -------------------
[32;1m[Board] [0m5 ||[30;1mp[0m|[0;1mk[0m|[30;1mb[0m|[7;1m [0m|[30;1mp[0m|[7;1m [0m| |[7;1m [0m|| 5
[32;1m[Board] [0m  -------------------
[32;1m[Board] [0m4 ||[0;1mp[0m| |[7;1m [0m| |[7;1m [0m| |[7;1m [0m| || 4
[32;1m[Board] [0m  -------------------
[32;1m[Board] [0m3 || |[7;1m [0m| |[7;1m [0m|[0;1mp[0m|[7;1m [0m| |[7;1m [0m|| 3
[32;1m[Board] [0m  -------------------
[32;1m[Board] [0m2 ||[7;1m [0m|[0;1mp[0m|[0;1mp[0m|[0;1mp[0m|[7;1m [0m|[0;1mK[0m|[0;1mp[0m|[0;1mp[0m|| 2
[32;1m[Board] [0m  -------------------
[32;1m[Board] [0m1 ||[0;1mr[0m|[7;1m [0m|[0;1mb[0m|[0;1mQ[0m| |[0;1mb[0m|[0;1mk[0m|[0;1mr[0m|| 1
[32;1m[Board] [0m  -------------------
[32;1m[Board] [0m    a b c d e f g h
[32;1m[Board] [0m
[32;1m[Referee] [0mThis is the turn of the White player...
Input file: championship/lizzie-iii-beatingthehorse/history.csv
Output file: championship/lizzie-iii-beatingthehorse/move.csv
Turn of: white
Succesful move
a2a4
8 | R N B Q K B N R 
7 | P P P P P P P P 
6 | _ _ _ _ _ _ _ _ 
5 | _ _ _ _ _ _ _ _ 
4 | P _ _ _ _ _ _ _ 
3 | _ _ _ _ _ _ _ _ 
2 | _ P P P P P P P 
1 | R N B Q K B N R 
-------------------
  | A B C D E F G H 

Turn of: black
Succesful move
e7e5
8 | R N B Q K B N R 
7 | P P P P _ P P P 
6 | _ _ _ _ _ _ _ _ 
5 | _ _ _ _ P _ _ _ 
4 | P _ _ _ _ _ _ _ 
3 | _ _ _ _ _ _ _ _ 
2 | _ P P P P P P P 
1 | R N B Q K B N R 
-------------------
  | A B C D E F G H 

Turn of: white
Succesful move
b1a3
8 | R N B Q K B N R 
7 | P P P P _ P P P 
6 | _ _ _ _ _ _ _ _ 
5 | _ _ _ _ P _ _ _ 
4 | P _ _ _ _ _ _ _ 
3 | N _ _ _ _ _ _ _ 
2 | _ P P P P P P P 
1 | R _ B Q K B N R 
-------------------
  | A B C D E F G H 

Turn of: black
Succesful move
f8c5
8 | R N B Q K _ N R 
7 | P P P P _ P P P 
6 | _ _ _ _ _ _ _ _ 
5 | _ _ B _ P _ _ _ 
4 | P _ _ _ _ _ _ _ 
3 | N _ _ _ _ _ _ _ 
2 | _ P P P P P P P 
1 | R _ B Q K B N R 
-------------------
  | A B C D E F G H 

Turn of: white
Succesful move
a3b5
8 | R N B Q K _ N R 
7 | P P P P _ P P P 
6 | _ _ _ _ _ _ _ _ 
5 | _ N B _ P _ _ _ 
4 | P _ _ _ _ _ _ _ 
3 | _ _ _ _ _ _ _ _ 
2 | _ P P P P P P P 
1 | R _ B Q K B N R 
-------------------
  | A B C D E F G H 

Turn of: black
Succesful move
d8h4
8 | R N B _ K _ N R 
7 | P P P P _ P P P 
6 | _ _ _ _ _ _ _ _ 
5 | _ N B _ P _ _ _ 
4 | P _ _ _ _ _ _ Q 
3 | _ _ _ _ _ _ _ _ 
2 | _ P P P P P P P 
1 | R _ B Q K B N R 
-------------------
  | A B C D E F G H 

Turn of: white
Succesful move
e2e3
8 | R N B _ K _ N R 
7 | P P P P _ P P P 
6 | _ _ _ _ _ _ _ _ 
5 | _ N B _ P _ _ _ 
4 | P _ _ _ _ _ _ Q 
3 | _ _ _ _ P _ _ _ 
2 | _ P P P _ P P P 
1 | R _ B Q K B N R 
-------------------
  | A B C D E F G H 

Turn of: black
Succesful move
h4f2q
8 | R N B _ K _ N R 
7 | P P P P _ P P P 
6 | _ _ _ _ _ _ _ _ 
5 | _ N B _ P _ _ _ 
4 | P _ _ _ _ _ _ _ 
3 | _ _ _ _ P _ _ _ 
2 | _ P P P _ Q P P 
1 | R _ B Q K B N R 
-------------------
  | A B C D E F G H 

Turn of: white
Succesful move
e1f2
8 | R N B _ K _ N R 
7 | P P P P _ P P P 
6 | _ _ _ _ _ _ _ _ 
5 | _ N B _ P _ _ _ 
4 | P _ _ _ _ _ _ _ 
3 | _ _ _ _ P _ _ _ 
2 | _ P P P _ K P P 
1 | R _ B Q _ B N R 
-------------------
  | A B C D E F G H 

Turn of: black
Succesful move
a7a5
8 | R N B _ K _ N R 
7 | _ P P P _ P P P 
6 | _ _ _ _ _ _ _ _ 
5 | P N B _ P _ _ _ 
4 | P _ _ _ _ _ _ _ 
3 | _ _ _ _ P _ _ _ 
2 | _ P P P _ K P P 
1 | R _ B Q _ B N R 
-------------------
  | A B C D E F G H 

We are playing as White
Move history:
a2a4
e7e5
b1a3
f8c5
a3b5
d8h4
e2e3
h4f2q
e1f2
a7a5
8 | R N B _ K _ N R 
7 | _ P P P _ P P P 
6 | _ _ _ _ _ _ _ _ 
5 | P N B _ P _ _ _ 
4 | P _ _ _ _ _ _ _ 
3 | _ _ _ _ P _ _ _ 
2 | _ P P P _ K P P 
1 | R _ B Q _ B N R 
-------------------
  | A B C D E F G H 

It is white's turn to play.
AI's move: f2g3
Move written: f2g3
[32;1m[Game] [0mPlayer's error code: 0
[32;1m[Game] [0mChecking move validity...
[32;1m[Board] [0mInitializing board...
[32;1m[Board] [0mLoading history file `championship/lizzie-iii-beatingthehorse/history.csv`...
[32;1m[Board] [0mLoaded 10 move(s).
[32;1m[Board] [0mLoading move file `championship/lizzie-iii-beatingthehorse/move.csv`...
[32;1m[Board] [0mWhite player is playing f2 to g3.
[32;1m[Board] [0m
[32;1m[Board] [0m    a b c d e f g h 
[32;1m[Board] [0m  -------------------
[32;1m[Board] [0m8 ||[30;1mr[0m|[30;1mk[0m|[30;1mb[0m| |[30;1mK[0m| |[30;1mk[0m|[30;1mr[0m|| 8
[32;1m[Board] [0m  -------------------
[32;1m[Board] [0m7 || |[30;1mp[0m|[30;1mp[0m|[30;1mp[0m| |[30;1mp[0m|[30;1mp[0m|[30;1mp[0m|| 7
[32;1m[Board] [0m  -------------------
[32;1m[Board] [0m6 ||[7;1m [0m| |[7;1m [0m| |[7;1m [0m| |[7;1m [0m| || 6
[32;1m[Board] [0m  -------------------
[32;1m[Board] [0m5 ||[30;1mp[0m|[0;1mk[0m|[30;1mb[0m|[7;1m [0m|[30;1mp[0m|[7;1m [0m| |[7;1m [0m|| 5
[32;1m[Board] [0m  -------------------
[32;1m[Board] [0m4 ||[0;1mp[0m| |[7;1m [0m| |[7;1m [0m| |[7;1m [0m| || 4
[32;1m[Board] [0m  -------------------
[32;1m[Board] [0m3 || |[7;1m [0m| |[7;1m [0m|[0;1mp[0m|[7;1m [0m|[0;1mK[0m|[7;1m [0m|| 3
[32;1m[Board] [0m  -------------------
[32;1m[Board] [0m2 ||[7;1m [0m|[0;1mp[0m|[0;1mp[0m|[0;1mp[0m|[7;1m [0m| |[0;1mp[0m|[0;1mp[0m|| 2
[32;1m[Board] [0m  -------------------
[32;1m[Board] [0m1 ||[0;1mr[0m|[7;1m [0m|[0;1mb[0m|[0;1mQ[0m| |[0;1mb[0m|[0;1mk[0m|[0;1mr[0m|| 1
[32;1m[Board] [0m  -------------------
[32;1m[Board] [0m    a b c d e f g h
[32;1m[Board] [0m
[32;1m[Referee] [0mThis is the turn of the Black player...
14
[32;1m[Game] [0mPlayer's error code: 0
[32;1m[Game] [0mChecking move validity...
[32;1m[Board] [0mInitializing board...
[32;1m[Board] [0mLoading history file `championship/lizzie-iii-beatingthehorse/history.csv`...
[32;1m[Board] [0mLoaded 11 move(s).
[32;1m[Board] [0mLoading move file `championship/lizzie-iii-beatingthehorse/move.csv`...
[32;1m[Board] [0mBlack player is playing b8 to a6.
[32;1m[Board] [0m
[32;1m[Board] [0m    a b c d e f g h 
[32;1m[Board] [0m  -------------------
[32;1m[Board] [0m8 ||[30;1mr[0m| |[30;1mb[0m| |[30;1mK[0m| |[30;1mk[0m|[30;1mr[0m|| 8
[32;1m[Board] [0m  -------------------
[32;1m[Board] [0m7 || |[30;1mp[0m|[30;1mp[0m|[30;1mp[0m| |[30;1mp[0m|[30;1mp[0m|[30;1mp[0m|| 7
[32;1m[Board] [0m  -------------------
[32;1m[Board] [0m6 ||[30;1mk[0m| |[7;1m [0m| |[7;1m [0m| |[7;1m [0m| || 6
[32;1m[Board] [0m  -------------------
[32;1m[Board] [0m5 ||[30;1mp[0m|[0;1mk[0m|[30;1mb[0m|[7;1m [0m|[30;1mp[0m|[7;1m [0m| |[7;1m [0m|| 5
[32;1m[Board] [0m  -------------------
[32;1m[Board] [0m4 ||[0;1mp[0m| |[7;1m [0m| |[7;1m [0m| |[7;1m [0m| || 4
[32;1m[Board] [0m  -------------------
[32;1m[Board] [0m3 || |[7;1m [0m| |[7;1m [0m|[0;1mp[0m|[7;1m [0m|[0;1mK[0m|[7;1m [0m|| 3
[32;1m[Board] [0m  -------------------
[32;1m[Board] [0m2 ||[7;1m [0m|[0;1mp[0m|[0;1mp[0m|[0;1mp[0m|[7;1m [0m| |[0;1mp[0m|[0;1mp[0m|| 2
[32;1m[Board] [0m  -------------------
[32;1m[Board] [0m1 ||[0;1mr[0m|[7;1m [0m|[0;1mb[0m|[0;1mQ[0m| |[0;1mb[0m|[0;1mk[0m|[0;1mr[0m|| 1
[32;1m[Board] [0m  -------------------
[32;1m[Board] [0m    a b c d e f g h
[32;1m[Board] [0m
[32;1m[Referee] [0mThis is the turn of the White player...
Input file: championship/lizzie-iii-beatingthehorse/history.csv
Output file: championship/lizzie-iii-beatingthehorse/move.csv
Turn of: white
Succesful move
a2a4
8 | R N B Q K B N R 
7 | P P P P P P P P 
6 | _ _ _ _ _ _ _ _ 
5 | _ _ _ _ _ _ _ _ 
4 | P _ _ _ _ _ _ _ 
3 | _ _ _ _ _ _ _ _ 
2 | _ P P P P P P P 
1 | R N B Q K B N R 
-------------------
  | A B C D E F G H 

Turn of: black
Succesful move
e7e5
8 | R N B Q K B N R 
7 | P P P P _ P P P 
6 | _ _ _ _ _ _ _ _ 
5 | _ _ _ _ P _ _ _ 
4 | P _ _ _ _ _ _ _ 
3 | _ _ _ _ _ _ _ _ 
2 | _ P P P P P P P 
1 | R N B Q K B N R 
-------------------
  | A B C D E F G H 

Turn of: white
Succesful move
b1a3
8 | R N B Q K B N R 
7 | P P P P _ P P P 
6 | _ _ _ _ _ _ _ _ 
5 | _ _ _ _ P _ _ _ 
4 | P _ _ _ _ _ _ _ 
3 | N _ _ _ _ _ _ _ 
2 | _ P P P P P P P 
1 | R _ B Q K B N R 
-------------------
  | A B C D E F G H 

Turn of: black
Succesful move
f8c5
8 | R N B Q K _ N R 
7 | P P P P _ P P P 
6 | _ _ _ _ _ _ _ _ 
5 | _ _ B _ P _ _ _ 
4 | P _ _ _ _ _ _ _ 
3 | N _ _ _ _ _ _ _ 
2 | _ P P P P P P P 
1 | R _ B Q K B N R 
-------------------
  | A B C D E F G H 

Turn of: white
Succesful move
a3b5
8 | R N B Q K _ N R 
7 | P P P P _ P P P 
6 | _ _ _ _ _ _ _ _ 
5 | _ N B _ P _ _ _ 
4 | P _ _ _ _ _ _ _ 
3 | _ _ _ _ _ _ _ _ 
2 | _ P P P P P P P 
1 | R _ B Q K B N R 
-------------------
  | A B C D E F G H 

Turn of: black
Succesful move
d8h4
8 | R N B _ K _ N R 
7 | P P P P _ P P P 
6 | _ _ _ _ _ _ _ _ 
5 | _ N B _ P _ _ _ 
4 | P _ _ _ _ _ _ Q 
3 | _ _ _ _ _ _ _ _ 
2 | _ P P P P P P P 
1 | R _ B Q K B N R 
-------------------
  | A B C D E F G H 

Turn of: white
Succesful move
e2e3
8 | R N B _ K _ N R 
7 | P P P P _ P P P 
6 | _ _ _ _ _ _ _ _ 
5 | _ N B _ P _ _ _ 
4 | P _ _ _ _ _ _ Q 
3 | _ _ _ _ P _ _ _ 
2 | _ P P P _ P P P 
1 | R _ B Q K B N R 
-------------------
  | A B C D E F G H 

Turn of: black
Succesful move
h4f2q
8 | R N B _ K _ N R 
7 | P P P P _ P P P 
6 | _ _ _ _ _ _ _ _ 
5 | _ N B _ P _ _ _ 
4 | P _ _ _ _ _ _ _ 
3 | _ _ _ _ P _ _ _ 
2 | _ P P P _ Q P P 
1 | R _ B Q K B N R 
-------------------
  | A B C D E F G H 

Turn of: white
Succesful move
e1f2
8 | R N B _ K _ N R 
7 | P P P P _ P P P 
6 | _ _ _ _ _ _ _ _ 
5 | _ N B _ P _ _ _ 
4 | P _ _ _ _ _ _ _ 
3 | _ _ _ _ P _ _ _ 
2 | _ P P P _ K P P 
1 | R _ B Q _ B N R 
-------------------
  | A B C D E F G H 

Turn of: black
Succesful move
a7a5
8 | R N B _ K _ N R 
7 | _ P P P _ P P P 
6 | _ _ _ _ _ _ _ _ 
5 | P N B _ P _ _ _ 
4 | P _ _ _ _ _ _ _ 
3 | _ _ _ _ P _ _ _ 
2 | _ P P P _ K P P 
1 | R _ B Q _ B N R 
-------------------
  | A B C D E F G H 

Turn of: white
Succesful move
f2g3
8 | R N B _ K _ N R 
7 | _ P P P _ P P P 
6 | _ _ _ _ _ _ _ _ 
5 | P N B _ P _ _ _ 
4 | P _ _ _ _ _ _ _ 
3 | _ _ _ _ P _ K _ 
2 | _ P P P _ _ P P 
1 | R _ B Q _ B N R 
-------------------
  | A B C D E F G H 

Turn of: black
Succesful move
b8a6
8 | R _ B _ K _ N R 
7 | _ P P P _ P P P 
6 | N _ _ _ _ _ _ _ 
5 | P N B _ P _ _ _ 
4 | P _ _ _ _ _ _ _ 
3 | _ _ _ _ P _ K _ 
2 | _ P P P _ _ P P 
1 | R _ B Q _ B N R 
-------------------
  | A B C D E F G H 

We are playing as White
Move history:
a2a4
e7e5
b1a3
f8c5
a3b5
d8h4
e2e3
h4f2q
e1f2
a7a5
f2g3
b8a6
8 | R _ B _ K _ N R 
7 | _ P P P _ P P P 
6 | N _ _ _ _ _ _ _ 
5 | P N B _ P _ _ _ 
4 | P _ _ _ _ _ _ _ 
3 | _ _ _ _ P _ K _ 
2 | _ P P P _ _ P P 
1 | R _ B Q _ B N R 
-------------------
  | A B C D E F G H 

It is white's turn to play.
AI's move: c2c3
Move written: c2c3
[32;1m[Game] [0mPlayer's error code: 0
[32;1m[Game] [0mChecking move validity...
[32;1m[Board] [0mInitializing board...
[32;1m[Board] [0mLoading history file `championship/lizzie-iii-beatingthehorse/history.csv`...
[32;1m[Board] [0mLoaded 12 move(s).
[32;1m[Board] [0mLoading move file `championship/lizzie-iii-beatingthehorse/move.csv`...
[32;1m[Board] [0mWhite player is playing c2 to c3.
[32;1m[Board] [0m
[32;1m[Board] [0m    a b c d e f g h 
[32;1m[Board] [0m  -------------------
[32;1m[Board] [0m8 ||[30;1mr[0m| |[30;1mb[0m| |[30;1mK[0m| |[30;1mk[0m|[30;1mr[0m|| 8
[32;1m[Board] [0m  -------------------
[32;1m[Board] [0m7 || |[30;1mp[0m|[30;1mp[0m|[30;1mp[0m| |[30;1mp[0m|[30;1mp[0m|[30;1mp[0m|| 7
[32;1m[Board] [0m  -------------------
[32;1m[Board] [0m6 ||[30;1mk[0m| |[7;1m [0m| |[7;1m [0m| |[7;1m [0m| || 6
[32;1m[Board] [0m  -------------------
[32;1m[Board] [0m5 ||[30;1mp[0m|[0;1mk[0m|[30;1mb[0m|[7;1m [0m|[30;1mp[0m|[7;1m [0m| |[7;1m [0m|| 5
[32;1m[Board] [0m  -------------------
[32;1m[Board] [0m4 ||[0;1mp[0m| |[7;1m [0m| |[7;1m [0m| |[7;1m [0m| || 4
[32;1m[Board] [0m  -------------------
[32;1m[Board] [0m3 || |[7;1m [0m|[0;1mp[0m|[7;1m [0m|[0;1mp[0m|[7;1m [0m|[0;1mK[0m|[7;1m [0m|| 3
[32;1m[Board] [0m  -------------------
[32;1m[Board] [0m2 ||[7;1m [0m|[0;1mp[0m|[7;1m [0m|[0;1mp[0m|[7;1m [0m| |[0;1mp[0m|[0;1mp[0m|| 2
[32;1m[Board] [0m  -------------------
[32;1m[Board] [0m1 ||[0;1mr[0m|[7;1m [0m|[0;1mb[0m|[0;1mQ[0m| |[0;1mb[0m|[0;1mk[0m|[0;1mr[0m|| 1
[32;1m[Board] [0m  -------------------
[32;1m[Board] [0m    a b c d e f g h
[32;1m[Board] [0m
[32;1m[Referee] [0mThis is the turn of the Black player...
14
[32;1m[Game] [0mPlayer's error code: 0
[32;1m[Game] [0mChecking move validity...
[32;1m[Board] [0mInitializing board...
[32;1m[Board] [0mLoading history file `championship/lizzie-iii-beatingthehorse/history.csv`...
[32;1m[Board] [0mLoaded 13 move(s).
[32;1m[Board] [0mLoading move file `championship/lizzie-iii-beatingthehorse/move.csv`...
[32;1m[Board] [0mBlack player is playing h7 to h5.
[32;1m[Board] [0m
[32;1m[Board] [0m    a b c d e f g h 
[32;1m[Board] [0m  -------------------
[32;1m[Board] [0m8 ||[30;1mr[0m| |[30;1mb[0m| |[30;1mK[0m| |[30;1mk[0m|[30;1mr[0m|| 8
[32;1m[Board] [0m  -------------------
[32;1m[Board] [0m7 || |[30;1mp[0m|[30;1mp[0m|[30;1mp[0m| |[30;1mp[0m|[30;1mp[0m|[7;1m [0m|| 7
[32;1m[Board] [0m  -------------------
[32;1m[Board] [0m6 ||[30;1mk[0m| |[7;1m [0m| |[7;1m [0m| |[7;1m [0m| || 6
[32;1m[Board] [0m  -------------------
[32;1m[Board] [0m5 ||[30;1mp[0m|[0;1mk[0m|[30;1mb[0m|[7;1m [0m|[30;1mp[0m|[7;1m [0m| |[30;1mp[0m|| 5
[32;1m[Board] [0m  -------------------
[32;1m[Board] [0m4 ||[0;1mp[0m| |[7;1m [0m| |[7;1m [0m| |[7;1m [0m| || 4
[32;1m[Board] [0m  -------------------
[32;1m[Board] [0m3 || |[7;1m [0m|[0;1mp[0m|[7;1m [0m|[0;1mp[0m|[7;1m [0m|[0;1mK[0m|[7;1m [0m|| 3
[32;1m[Board] [0m  -------------------
[32;1m[Board] [0m2 ||[7;1m [0m|[0;1mp[0m|[7;1m [0m|[0;1mp[0m|[7;1m [0m| |[0;1mp[0m|[0;1mp[0m|| 2
[32;1m[Board] [0m  -------------------
[32;1m[Board] [0m1 ||[0;1mr[0m|[7;1m [0m|[0;1mb[0m|[0;1mQ[0m| |[0;1mb[0m|[0;1mk[0m|[0;1mr[0m|| 1
[32;1m[Board] [0m  -------------------
[32;1m[Board] [0m    a b c d e f g h
[32;1m[Board] [0m
[32;1m[Referee] [0mThis is the turn of the White player...
Input file: championship/lizzie-iii-beatingthehorse/history.csv
Output file: championship/lizzie-iii-beatingthehorse/move.csv
Turn of: white
Succesful move
a2a4
8 | R N B Q K B N R 
7 | P P P P P P P P 
6 | _ _ _ _ _ _ _ _ 
5 | _ _ _ _ _ _ _ _ 
4 | P _ _ _ _ _ _ _ 
3 | _ _ _ _ _ _ _ _ 
2 | _ P P P P P P P 
1 | R N B Q K B N R 
-------------------
  | A B C D E F G H 

Turn of: black
Succesful move
e7e5
8 | R N B Q K B N R 
7 | P P P P _ P P P 
6 | _ _ _ _ _ _ _ _ 
5 | _ _ _ _ P _ _ _ 
4 | P _ _ _ _ _ _ _ 
3 | _ _ _ _ _ _ _ _ 
2 | _ P P P P P P P 
1 | R N B Q K B N R 
-------------------
  | A B C D E F G H 

Turn of: white
Succesful move
b1a3
8 | R N B Q K B N R 
7 | P P P P _ P P P 
6 | _ _ _ _ _ _ _ _ 
5 | _ _ _ _ P _ _ _ 
4 | P _ _ _ _ _ _ _ 
3 | N _ _ _ _ _ _ _ 
2 | _ P P P P P P P 
1 | R _ B Q K B N R 
-------------------
  | A B C D E F G H 

Turn of: black
Succesful move
f8c5
8 | R N B Q K _ N R 
7 | P P P P _ P P P 
6 | _ _ _ _ _ _ _ _ 
5 | _ _ B _ P _ _ _ 
4 | P _ _ _ _ _ _ _ 
3 | N _ _ _ _ _ _ _ 
2 | _ P P P P P P P 
1 | R _ B Q K B N R 
-------------------
  | A B C D E F G H 

Turn of: white
Succesful move
a3b5
8 | R N B Q K _ N R 
7 | P P P P _ P P P 
6 | _ _ _ _ _ _ _ _ 
5 | _ N B _ P _ _ _ 
4 | P _ _ _ _ _ _ _ 
3 | _ _ _ _ _ _ _ _ 
2 | _ P P P P P P P 
1 | R _ B Q K B N R 
-------------------
  | A B C D E F G H 

Turn of: black
Succesful move
d8h4
8 | R N B _ K _ N R 
7 | P P P P _ P P P 
6 | _ _ _ _ _ _ _ _ 
5 | _ N B _ P _ _ _ 
4 | P _ _ _ _ _ _ Q 
3 | _ _ _ _ _ _ _ _ 
2 | _ P P P P P P P 
1 | R _ B Q K B N R 
-------------------
  | A B C D E F G H 

Turn of: white
Succesful move
e2e3
8 | R N B _ K _ N R 
7 | P P P P _ P P P 
6 | _ _ _ _ _ _ _ _ 
5 | _ N B _ P _ _ _ 
4 | P _ _ _ _ _ _ Q 
3 | _ _ _ _ P _ _ _ 
2 | _ P P P _ P P P 
1 | R _ B Q K B N R 
-------------------
  | A B C D E F G H 

Turn of: black
Succesful move
h4f2q
8 | R N B _ K _ N R 
7 | P P P P _ P P P 
6 | _ _ _ _ _ _ _ _ 
5 | _ N B _ P _ _ _ 
4 | P _ _ _ _ _ _ _ 
3 | _ _ _ _ P _ _ _ 
2 | _ P P P _ Q P P 
1 | R _ B Q K B N R 
-------------------
  | A B C D E F G H 

Turn of: white
Succesful move
e1f2
8 | R N B _ K _ N R 
7 | P P P P _ P P P 
6 | _ _ _ _ _ _ _ _ 
5 | _ N B _ P _ _ _ 
4 | P _ _ _ _ _ _ _ 
3 | _ _ _ _ P _ _ _ 
2 | _ P P P _ K P P 
1 | R _ B Q _ B N R 
-------------------
  | A B C D E F G H 

Turn of: black
Succesful move
a7a5
8 | R N B _ K _ N R 
7 | _ P P P _ P P P 
6 | _ _ _ _ _ _ _ _ 
5 | P N B _ P _ _ _ 
4 | P _ _ _ _ _ _ _ 
3 | _ _ _ _ P _ _ _ 
2 | _ P P P _ K P P 
1 | R _ B Q _ B N R 
-------------------
  | A B C D E F G H 

Turn of: white
Succesful move
f2g3
8 | R N B _ K _ N R 
7 | _ P P P _ P P P 
6 | _ _ _ _ _ _ _ _ 
5 | P N B _ P _ _ _ 
4 | P _ _ _ _ _ _ _ 
3 | _ _ _ _ P _ K _ 
2 | _ P P P _ _ P P 
1 | R _ B Q _ B N R 
-------------------
  | A B C D E F G H 

Turn of: black
Succesful move
b8a6
8 | R _ B _ K _ N R 
7 | _ P P P _ P P P 
6 | N _ _ _ _ _ _ _ 
5 | P N B _ P _ _ _ 
4 | P _ _ _ _ _ _ _ 
3 | _ _ _ _ P _ K _ 
2 | _ P P P _ _ P P 
1 | R _ B Q _ B N R 
-------------------
  | A B C D E F G H 

Turn of: white
Succesful move
c2c3
8 | R _ B _ K _ N R 
7 | _ P P P _ P P P 
6 | N _ _ _ _ _ _ _ 
5 | P N B _ P _ _ _ 
4 | P _ _ _ _ _ _ _ 
3 | _ _ P _ P _ K _ 
2 | _ P _ P _ _ P P 
1 | R _ B Q _ B N R 
-------------------
  | A B C D E F G H 

Turn of: black
Succesful move
h7h5
8 | R _ B _ K _ N R 
7 | _ P P P _ P P _ 
6 | N _ _ _ _ _ _ _ 
5 | P N B _ P _ _ P 
4 | P _ _ _ _ _ _ _ 
3 | _ _ P _ P _ K _ 
2 | _ P _ P _ _ P P 
1 | R _ B Q _ B N R 
-------------------
  | A B C D E F G H 

We are playing as White
Move history:
a2a4
e7e5
b1a3
f8c5
a3b5
d8h4
e2e3
h4f2q
e1f2
a7a5
f2g3
b8a6
c2c3
h7h5
8 | R _ B _ K _ N R 
7 | _ P P P _ P P _ 
6 | N _ _ _ _ _ _ _ 
5 | P N B _ P _ _ P 
4 | P _ _ _ _ _ _ _ 
3 | _ _ P _ P _ K _ 
2 | _ P _ P _ _ P P 
1 | R _ B Q _ B N R 
-------------------
  | A B C D E F G H 

It is white's turn to play.
AI's move: d2d4
Move written: d2d4
[32;1m[Game] [0mPlayer's error code: 0
[32;1m[Game] [0mChecking move validity...
[32;1m[Board] [0mInitializing board...
[32;1m[Board] [0mLoading history file `championship/lizzie-iii-beatingthehorse/history.csv`...
[32;1m[Board] [0mLoaded 14 move(s).
[32;1m[Board] [0mLoading move file `championship/lizzie-iii-beatingthehorse/move.csv`...
[32;1m[Board] [0mWhite player is playing d2 to d4.
[32;1m[Board] [0m
[32;1m[Board] [0m    a b c d e f g h 
[32;1m[Board] [0m  -------------------
[32;1m[Board] [0m8 ||[30;1mr[0m| |[30;1mb[0m| |[30;1mK[0m| |[30;1mk[0m|[30;1mr[0m|| 8
[32;1m[Board] [0m  -------------------
[32;1m[Board] [0m7 || |[30;1mp[0m|[30;1mp[0m|[30;1mp[0m| |[30;1mp[0m|[30;1mp[0m|[7;1m [0m|| 7
[32;1m[Board] [0m  -------------------
[32;1m[Board] [0m6 ||[30;1mk[0m| |[7;1m [0m| |[7;1m [0m| |[7;1m [0m| || 6
[32;1m[Board] [0m  -------------------
[32;1m[Board] [0m5 ||[30;1mp[0m|[0;1mk[0m|[30;1mb[0m|[7;1m [0m|[30;1mp[0m|[7;1m [0m| |[30;1mp[0m|| 5
[32;1m[Board] [0m  -------------------
[32;1m[Board] [0m4 ||[0;1mp[0m| |[7;1m [0m|[0;1mp[0m|[7;1m [0m| |[7;1m [0m| || 4
[32;1m[Board] [0m  -------------------
[32;1m[Board] [0m3 || |[7;1m [0m|[0;1mp[0m|[7;1m [0m|[0;1mp[0m|[7;1m [0m|[0;1mK[0m|[7;1m [0m|| 3
[32;1m[Board] [0m  -------------------
[32;1m[Board] [0m2 ||[7;1m [0m|[0;1mp[0m|[7;1m [0m| |[7;1m [0m| |[0;1mp[0m|[0;1mp[0m|| 2
[32;1m[Board] [0m  -------------------
[32;1m[Board] [0m1 ||[0;1mr[0m|[7;1m [0m|[0;1mb[0m|[0;1mQ[0m| |[0;1mb[0m|[0;1mk[0m|[0;1mr[0m|| 1
[32;1m[Board] [0m  -------------------
[32;1m[Board] [0m    a b c d e f g h
[32;1m[Board] [0m
[32;1m[Referee] [0mThis is the turn of the Black player...
3
[32;1m[Game] [0mPlayer's error code: 0
[32;1m[Game] [0mChecking move validity...
[32;1m[Board] [0mInitializing board...
[32;1m[Board] [0mLoading history file `championship/lizzie-iii-beatingthehorse/history.csv`...
[32;1m[Board] [0mLoaded 15 move(s).
[32;1m[Board] [0mLoading move file `championship/lizzie-iii-beatingthehorse/move.csv`...
[32;1m[Board] [0mBlack player is playing a6 to h7.
[32;1m[Board] [0m[31;1m[ERROR][0m Black Knight (a6) cannot reach its destination (h7) :(
[32;1m[Referee] [0mInvalid move (code: -7) :(
[32;1m[Game] [0mBlack player has lost on illegal move.
