[32;1m[Board] [0mInitializing board...
[32;1m[Board] [0m
[32;1m[Board] [0m    a b c d e f g h 
[32;1m[Board] [0m  -------------------
[32;1m[Board] [0m8 ||[30;1mr[0m|[30;1mk[0m|[30;1mb[0m|[30;1mQ[0m|[30;1mK[0m|[30;1mb[0m|[30;1mk[0m|[30;1mr[0m|| 8
[32;1m[Board] [0m  -------------------
[32;1m[Board] [0m7 ||[30;1mp[0m|[30;1mp[0m|[30;1mp[0m|[30;1mp[0m|[30;1mp[0m|[30;1mp[0m|[30;1mp[0m|[30;1mp[0m|| 7
[32;1m[Board] [0m  -------------------
[32;1m[Board] [0m6 ||[7;1m [0m| |[7;1m [0m| |[7;1m [0m| |[7;1m [0m| || 6
[32;1m[Board] [0m  -------------------
[32;1m[Board] [0m5 || |[7;1m [0m| |[7;1m [0m| |[7;1m [0m| |[7;1m [0m|| 5
[32;1m[Board] [0m  -------------------
[32;1m[Board] [0m4 ||[7;1m [0m| |[7;1m [0m| |[7;1m [0m| |[7;1m [0m| || 4
[32;1m[Board] [0m  -------------------
[32;1m[Board] [0m3 || |[7;1m [0m| |[7;1m [0m| |[7;1m [0m| |[7;1m [0m|| 3
[32;1m[Board] [0m  -------------------
[32;1m[Board] [0m2 ||[0;1mp[0m|[0;1mp[0m|[0;1mp[0m|[0;1mp[0m|[0;1mp[0m|[0;1mp[0m|[0;1mp[0m|[0;1mp[0m|| 2
[32;1m[Board] [0m  -------------------
[32;1m[Board] [0m1 ||[0;1mr[0m|[0;1mk[0m|[0;1mb[0m|[0;1mQ[0m|[0;1mK[0m|[0;1mb[0m|[0;1mk[0m|[0;1mr[0m|| 1
[32;1m[Board] [0m  -------------------
[32;1m[Board] [0m    a b c d e f g h
[32;1m[Board] [0m
[32;1m[Referee] [0mThis is the turn of the White player...
Input file: championship/lizzie-iii-beatingthehorse/history.csv
Output file: championship/lizzie-iii-beatingthehorse/move.csv
We are playing as White
Move history:
8 | [1;31mR[0m [1;31mN[0m [1;31mB[0m [1;31mQ[0m [1;31mK[0m [1;31mB[0m [1;31mN[0m [1;31mR[0m 
7 | [1;31mP[0m [1;31mP[0m [1;31mP[0m [1;31mP[0m [1;31mP[0m [1;31mP[0m [1;31mP[0m [1;31mP[0m 
6 | [1;30m_[0m [1;30m_[0m [1;30m_[0m [1;30m_[0m [1;30m_[0m [1;30m_[0m [1;30m_[0m [1;30m_[0m 
5 | [1;30m_[0m [1;30m_[0m [1;30m_[0m [1;30m_[0m [1;30m_[0m [1;30m_[0m [1;30m_[0m [1;30m_[0m 
4 | [1;30m_[0m [1;30m_[0m [1;30m_[0m [1;30m_[0m [1;30m_[0m [1;30m_[0m [1;30m_[0m [1;30m_[0m 
3 | [1;30m_[0m [1;30m_[0m [1;30m_[0m [1;30m_[0m [1;30m_[0m [1;30m_[0m [1;30m_[0m [1;30m_[0m 
2 | [1;32mP[0m [1;32mP[0m [1;32mP[0m [1;32mP[0m [1;32mP[0m [1;32mP[0m [1;32mP[0m [1;32mP[0m 
1 | [1;32mR[0m [1;32mN[0m [1;32mB[0m [1;32mQ[0m [1;32mK[0m [1;32mB[0m [1;32mN[0m [1;32mR[0m 
-------------------
  | A B C D E F G H 

It is white's turn to play.
Checkmate 0
8 | [1;31mR[0m [1;31mN[0m [1;31mB[0m [1;31mQ[0m [1;31mK[0m [1;31mB[0m [1;31mN[0m [1;31mR[0m 
7 | [1;31mP[0m [1;31mP[0m [1;31mP[0m [1;31mP[0m [1;31mP[0m [1;31mP[0m [1;31mP[0m [1;31mP[0m 
6 | [1;30m_[0m [1;30m_[0m [1;30m_[0m [1;30m_[0m [1;30m_[0m [1;30m_[0m [1;30m_[0m [1;30m_[0m 
5 | [1;30m_[0m [1;30m_[0m [1;30m_[0m [1;30m_[0m [1;30m_[0m [1;30m_[0m [1;30m_[0m [1;30m_[0m 
4 | [1;30m_[0m [1;30m_[0m [1;30m_[0m [1;30m_[0m [1;30m_[0m [1;30m_[0m [1;30m_[0m [1;30m_[0m 
3 | [1;30m_[0m [1;30m_[0m [1;30m_[0m [1;30m_[0m [1;30m_[0m [1;30m_[0m [1;30m_[0m [1;30m_[0m 
2 | [1;32mP[0m [1;32mP[0m [1;32mP[0m [1;32mP[0m [1;32mP[0m [1;32mP[0m [1;32mP[0m [1;32mP[0m 
1 | [1;32mR[0m [1;32mN[0m [1;32mB[0m [1;32mQ[0m [1;32mK[0m [1;32mB[0m [1;32mN[0m [1;32mR[0m 
-------------------
  | A B C D E F G H 

Checkmate 0
Best move: e2e4
Evaluation: 75
[32;1m[Game] [0mPlayer's error code: 0
[32;1m[Game] [0mChecking move validity...
[32;1m[Board] [0mInitializing board...
[32;1m[Board] [0mLoading history file `championship/lizzie-iii-beatingthehorse/history.csv`...
[32;1m[Board] [0mLoaded 0 move(s).
[32;1m[Board] [0mLoading move file `championship/lizzie-iii-beatingthehorse/move.csv`...
[32;1m[Board] [0mWhite player is playing e2 to e4.
[32;1m[Board] [0m
[32;1m[Board] [0m    a b c d e f g h 
[32;1m[Board] [0m  -------------------
[32;1m[Board] [0m8 ||[30;1mr[0m|[30;1mk[0m|[30;1mb[0m|[30;1mQ[0m|[30;1mK[0m|[30;1mb[0m|[30;1mk[0m|[30;1mr[0m|| 8
[32;1m[Board] [0m  -------------------
[32;1m[Board] [0m7 ||[30;1mp[0m|[30;1mp[0m|[30;1mp[0m|[30;1mp[0m|[30;1mp[0m|[30;1mp[0m|[30;1mp[0m|[30;1mp[0m|| 7
[32;1m[Board] [0m  -------------------
[32;1m[Board] [0m6 ||[7;1m [0m| |[7;1m [0m| |[7;1m [0m| |[7;1m [0m| || 6
[32;1m[Board] [0m  -------------------
[32;1m[Board] [0m5 || |[7;1m [0m| |[7;1m [0m| |[7;1m [0m| |[7;1m [0m|| 5
[32;1m[Board] [0m  -------------------
[32;1m[Board] [0m4 ||[7;1m [0m| |[7;1m [0m| |[0;1mp[0m| |[7;1m [0m| || 4
[32;1m[Board] [0m  -------------------
[32;1m[Board] [0m3 || |[7;1m [0m| |[7;1m [0m| |[7;1m [0m| |[7;1m [0m|| 3
[32;1m[Board] [0m  -------------------
[32;1m[Board] [0m2 ||[0;1mp[0m|[0;1mp[0m|[0;1mp[0m|[0;1mp[0m|[7;1m [0m|[0;1mp[0m|[0;1mp[0m|[0;1mp[0m|| 2
[32;1m[Board] [0m  -------------------
[32;1m[Board] [0m1 ||[0;1mr[0m|[0;1mk[0m|[0;1mb[0m|[0;1mQ[0m|[0;1mK[0m|[0;1mb[0m|[0;1mk[0m|[0;1mr[0m|| 1
[32;1m[Board] [0m  -------------------
[32;1m[Board] [0m    a b c d e f g h
[32;1m[Board] [0m
[32;1m[Referee] [0mThis is the turn of the Black player...
/home/julien/Pro/git/teaching/x/2024/beatingthehorse/sources/main.cpp:43:25: runtime error: load of value 68, which is not a valid value for type 'bool'
SUMMARY: UndefinedBehaviorSanitizer: undefined-behavior /home/julien/Pro/git/teaching/x/2024/beatingthehorse/sources/main.cpp:43:25 
[32;1m[Game] [0mPlayer's error code: 0
[32;1m[Game] [0mChecking move validity...
[32;1m[Board] [0mInitializing board...
[32;1m[Board] [0mLoading history file `championship/lizzie-iii-beatingthehorse/history.csv`...
[32;1m[Board] [0mLoaded 1 move(s).
[32;1m[Board] [0mLoading move file `championship/lizzie-iii-beatingthehorse/move.csv`...
[32;1m[Board] [0mBlack player is playing e7 to e5.
[32;1m[Board] [0m
[32;1m[Board] [0m    a b c d e f g h 
[32;1m[Board] [0m  -------------------
[32;1m[Board] [0m8 ||[30;1mr[0m|[30;1mk[0m|[30;1mb[0m|[30;1mQ[0m|[30;1mK[0m|[30;1mb[0m|[30;1mk[0m|[30;1mr[0m|| 8
[32;1m[Board] [0m  -------------------
[32;1m[Board] [0m7 ||[30;1mp[0m|[30;1mp[0m|[30;1mp[0m|[30;1mp[0m| |[30;1mp[0m|[30;1mp[0m|[30;1mp[0m|| 7
[32;1m[Board] [0m  -------------------
[32;1m[Board] [0m6 ||[7;1m [0m| |[7;1m [0m| |[7;1m [0m| |[7;1m [0m| || 6
[32;1m[Board] [0m  -------------------
[32;1m[Board] [0m5 || |[7;1m [0m| |[7;1m [0m|[30;1mp[0m|[7;1m [0m| |[7;1m [0m|| 5
[32;1m[Board] [0m  -------------------
[32;1m[Board] [0m4 ||[7;1m [0m| |[7;1m [0m| |[0;1mp[0m| |[7;1m [0m| || 4
[32;1m[Board] [0m  -------------------
[32;1m[Board] [0m3 || |[7;1m [0m| |[7;1m [0m| |[7;1m [0m| |[7;1m [0m|| 3
[32;1m[Board] [0m  -------------------
[32;1m[Board] [0m2 ||[0;1mp[0m|[0;1mp[0m|[0;1mp[0m|[0;1mp[0m|[7;1m [0m|[0;1mp[0m|[0;1mp[0m|[0;1mp[0m|| 2
[32;1m[Board] [0m  -------------------
[32;1m[Board] [0m1 ||[0;1mr[0m|[0;1mk[0m|[0;1mb[0m|[0;1mQ[0m|[0;1mK[0m|[0;1mb[0m|[0;1mk[0m|[0;1mr[0m|| 1
[32;1m[Board] [0m  -------------------
[32;1m[Board] [0m    a b c d e f g h
[32;1m[Board] [0m
[32;1m[Referee] [0mThis is the turn of the White player...
Input file: championship/lizzie-iii-beatingthehorse/history.csv
Output file: championship/lizzie-iii-beatingthehorse/move.csv
Turn of: white
Succesful move
e2e4
Turn of: black
Succesful move
e7e5
We are playing as White
Move history:
e2e4
e7e5
8 | [1;31mR[0m [1;31mN[0m [1;31mB[0m [1;31mQ[0m [1;31mK[0m [1;31mB[0m [1;31mN[0m [1;31mR[0m 
7 | [1;31mP[0m [1;31mP[0m [1;31mP[0m [1;31mP[0m [1;30m_[0m [1;31mP[0m [1;31mP[0m [1;31mP[0m 
6 | [1;30m_[0m [1;30m_[0m [1;30m_[0m [1;30m_[0m [1;30m_[0m [1;30m_[0m [1;30m_[0m [1;30m_[0m 
5 | [1;30m_[0m [1;30m_[0m [1;30m_[0m [1;30m_[0m [1;31mP[0m [1;30m_[0m [1;30m_[0m [1;30m_[0m 
4 | [1;30m_[0m [1;30m_[0m [1;30m_[0m [1;30m_[0m [1;32mP[0m [1;30m_[0m [1;30m_[0m [1;30m_[0m 
3 | [1;30m_[0m [1;30m_[0m [1;30m_[0m [1;30m_[0m [1;30m_[0m [1;30m_[0m [1;30m_[0m [1;30m_[0m 
2 | [1;32mP[0m [1;32mP[0m [1;32mP[0m [1;32mP[0m [1;30m_[0m [1;32mP[0m [1;32mP[0m [1;32mP[0m 
1 | [1;32mR[0m [1;32mN[0m [1;32mB[0m [1;32mQ[0m [1;32mK[0m [1;32mB[0m [1;32mN[0m [1;32mR[0m 
-------------------
  | A B C D E F G H 

It is white's turn to play.
Checkmate 0
8 | [1;31mR[0m [1;31mN[0m [1;31mB[0m [1;31mQ[0m [1;31mK[0m [1;31mB[0m [1;31mN[0m [1;31mR[0m 
7 | [1;31mP[0m [1;31mP[0m [1;31mP[0m [1;31mP[0m [1;30m_[0m [1;31mP[0m [1;31mP[0m [1;31mP[0m 
6 | [1;30m_[0m [1;30m_[0m [1;30m_[0m [1;30m_[0m [1;30m_[0m [1;30m_[0m [1;30m_[0m [1;30m_[0m 
5 | [1;30m_[0m [1;30m_[0m [1;30m_[0m [1;30m_[0m [1;31mP[0m [1;30m_[0m [1;30m_[0m [1;30m_[0m 
4 | [1;30m_[0m [1;30m_[0m [1;30m_[0m [1;30m_[0m [1;32mP[0m [1;30m_[0m [1;30m_[0m [1;30m_[0m 
3 | [1;30m_[0m [1;30m_[0m [1;30m_[0m [1;30m_[0m [1;30m_[0m [1;30m_[0m [1;30m_[0m [1;30m_[0m 
2 | [1;32mP[0m [1;32mP[0m [1;32mP[0m [1;32mP[0m [1;30m_[0m [1;32mP[0m [1;32mP[0m [1;32mP[0m 
1 | [1;32mR[0m [1;32mN[0m [1;32mB[0m [1;32mQ[0m [1;32mK[0m [1;32mB[0m [1;32mN[0m [1;32mR[0m 
-------------------
  | A B C D E F G H 

Checkmate 0
Best move: b1c3
Evaluation: 130
[32;1m[Game] [0mPlayer's error code: 0
[32;1m[Game] [0mChecking move validity...
[32;1m[Board] [0mInitializing board...
[32;1m[Board] [0mLoading history file `championship/lizzie-iii-beatingthehorse/history.csv`...
[32;1m[Board] [0mLoaded 2 move(s).
[32;1m[Board] [0mLoading move file `championship/lizzie-iii-beatingthehorse/move.csv`...
[32;1m[Board] [0mWhite player is playing b1 to c3.
[32;1m[Board] [0m
[32;1m[Board] [0m    a b c d e f g h 
[32;1m[Board] [0m  -------------------
[32;1m[Board] [0m8 ||[30;1mr[0m|[30;1mk[0m|[30;1mb[0m|[30;1mQ[0m|[30;1mK[0m|[30;1mb[0m|[30;1mk[0m|[30;1mr[0m|| 8
[32;1m[Board] [0m  -------------------
[32;1m[Board] [0m7 ||[30;1mp[0m|[30;1mp[0m|[30;1mp[0m|[30;1mp[0m| |[30;1mp[0m|[30;1mp[0m|[30;1mp[0m|| 7
[32;1m[Board] [0m  -------------------
[32;1m[Board] [0m6 ||[7;1m [0m| |[7;1m [0m| |[7;1m [0m| |[7;1m [0m| || 6
[32;1m[Board] [0m  -------------------
[32;1m[Board] [0m5 || |[7;1m [0m| |[7;1m [0m|[30;1mp[0m|[7;1m [0m| |[7;1m [0m|| 5
[32;1m[Board] [0m  -------------------
[32;1m[Board] [0m4 ||[7;1m [0m| |[7;1m [0m| |[0;1mp[0m| |[7;1m [0m| || 4
[32;1m[Board] [0m  -------------------
[32;1m[Board] [0m3 || |[7;1m [0m|[0;1mk[0m|[7;1m [0m| |[7;1m [0m| |[7;1m [0m|| 3
[32;1m[Board] [0m  -------------------
[32;1m[Board] [0m2 ||[0;1mp[0m|[0;1mp[0m|[0;1mp[0m|[0;1mp[0m|[7;1m [0m|[0;1mp[0m|[0;1mp[0m|[0;1mp[0m|| 2
[32;1m[Board] [0m  -------------------
[32;1m[Board] [0m1 ||[0;1mr[0m|[7;1m [0m|[0;1mb[0m|[0;1mQ[0m|[0;1mK[0m|[0;1mb[0m|[0;1mk[0m|[0;1mr[0m|| 1
[32;1m[Board] [0m  -------------------
[32;1m[Board] [0m    a b c d e f g h
[32;1m[Board] [0m
[32;1m[Referee] [0mThis is the turn of the Black player...
/home/julien/Pro/git/teaching/x/2024/beatingthehorse/sources/main.cpp:43:25: runtime error: load of value 10, which is not a valid value for type 'bool'
SUMMARY: UndefinedBehaviorSanitizer: undefined-behavior /home/julien/Pro/git/teaching/x/2024/beatingthehorse/sources/main.cpp:43:25 
1068162163522944461
/usr/lib/gcc/x86_64-pc-linux-gnu/12/include/g++-v12/bits/stl_vector.h:1124:34: runtime error: applying non-zero offset 1998366058984078112 to null pointer
SUMMARY: UndefinedBehaviorSanitizer: undefined-behavior /usr/lib/gcc/x86_64-pc-linux-gnu/12/include/g++-v12/bits/stl_vector.h:1124:34 
/usr/lib/gcc/x86_64-pc-linux-gnu/12/include/g++-v12/bits/stl_vector.h:1124:9: runtime error: reference binding to address 0x1bbb9f57c4f17b20 with insufficient space for an object of type 'std::basic_string<char>'
0x1bbb9f57c4f17b20: note: pointer points here
<memory cannot be printed>
SUMMARY: UndefinedBehaviorSanitizer: undefined-behavior /usr/lib/gcc/x86_64-pc-linux-gnu/12/include/g++-v12/bits/stl_vector.h:1124:9 
AddressSanitizer:DEADLYSIGNAL
=================================================================
==17315==ERROR: AddressSanitizer: SEGV on unknown address (pc 0x55f4eca0a3c3 bp 0x7ffe6acc8050 sp 0x7ffe6acc7ec0 T0)
==17315==The signal is caused by a READ memory access.
==17315==Hint: this fault was caused by a dereference of a high value address (see register values below).  Disassemble the provided pc to learn which register was used.
    #0 0x55f4eca0a3c3 in main (/data/julien/Pro/git/teaching/x/2024/beatingthehorse/build/beatingthehorse+0x1183c3)
    #1 0x7f0a5b28e52f  (/lib64/libc.so.6+0x2652f)
    #2 0x7f0a5b28e5e8 in __libc_start_main (/lib64/libc.so.6+0x265e8)
    #3 0x55f4ec921ba4 in _start (/data/julien/Pro/git/teaching/x/2024/beatingthehorse/build/beatingthehorse+0x2fba4)

==17315==Register values:
rax = 0x037773eaf89e2f64  rbx = 0x00007ffe6acc7ec0  rcx = 0x0000000000000000  rdx = 0x0000000000000000  
rdi = 0x00007ffe6acc7218  rsi = 0x0000000000000000  rbp = 0x00007ffe6acc8050  rsp = 0x00007ffe6acc7ec0  
 r8 = 0x000000000000007c   r9 = 0x0000000000000000  r10 = 0xafffff00000fffff  r11 = 0x0000000000000246  
r12 = 0x00000fe1cb39881a  r13 = 0x1bbb9f57c4f17b20  r14 = 0x00007f0a59d040d0  r15 = 0x0000000000000000  
AddressSanitizer can not provide additional info.
SUMMARY: AddressSanitizer: SEGV (/data/julien/Pro/git/teaching/x/2024/beatingthehorse/build/beatingthehorse+0x1183c3) in main
==17315==ABORTING
[32;1m[Game] [0mPlayer's error code: 256
[32;1m[Game] [0mChecking move validity...
[32;1m[Board] [0mInitializing board...
[32;1m[Board] [0mLoading history file `championship/lizzie-iii-beatingthehorse/history.csv`...
[32;1m[Board] [0mLoaded 3 move(s).
[32;1m[Board] [0mLoading move file `championship/lizzie-iii-beatingthehorse/move.csv`...
[32;1m[Board] [0mBlack player is playing  -48 to  -48.
[32;1m[Board] [0m[31;1m[ERROR][0m Move source ( -48) out of bound :(
[32;1m[Referee] [0mInvalid move (code: -1) :(
[32;1m[Game] [0mBlack player has lost on illegal move.
