[32;1m[Board] [0mInitializing board...
[32;1m[Board] [0m
[32;1m[Board] [0m    a b c d e f g h 
[32;1m[Board] [0m  -------------------
[32;1m[Board] [0m8 ||[30;1mr[0m|[30;1mk[0m|[30;1mb[0m|[30;1mQ[0m|[30;1mK[0m|[30;1mb[0m|[30;1mk[0m|[30;1mr[0m|| 8
[32;1m[Board] [0m  -------------------
[32;1m[Board] [0m7 ||[30;1mp[0m|[30;1mp[0m|[30;1mp[0m|[30;1mp[0m|[30;1mp[0m|[30;1mp[0m|[30;1mp[0m|[30;1mp[0m|| 7
[32;1m[Board] [0m  -------------------
[32;1m[Board] [0m6 ||[7;1m [0m| |[7;1m [0m| |[7;1m [0m| |[7;1m [0m| || 6
[32;1m[Board] [0m  -------------------
[32;1m[Board] [0m5 || |[7;1m [0m| |[7;1m [0m| |[7;1m [0m| |[7;1m [0m|| 5
[32;1m[Board] [0m  -------------------
[32;1m[Board] [0m4 ||[7;1m [0m| |[7;1m [0m| |[7;1m [0m| |[7;1m [0m| || 4
[32;1m[Board] [0m  -------------------
[32;1m[Board] [0m3 || |[7;1m [0m| |[7;1m [0m| |[7;1m [0m| |[7;1m [0m|| 3
[32;1m[Board] [0m  -------------------
[32;1m[Board] [0m2 ||[0;1mp[0m|[0;1mp[0m|[0;1mp[0m|[0;1mp[0m|[0;1mp[0m|[0;1mp[0m|[0;1mp[0m|[0;1mp[0m|| 2
[32;1m[Board] [0m  -------------------
[32;1m[Board] [0m1 ||[0;1mr[0m|[0;1mk[0m|[0;1mb[0m|[0;1mQ[0m|[0;1mK[0m|[0;1mb[0m|[0;1mk[0m|[0;1mr[0m|| 1
[32;1m[Board] [0m  -------------------
[32;1m[Board] [0m    a b c d e f g h
[32;1m[Board] [0m
[32;1m[Referee] [0mThis is the turn of the White player...
Input file: championship/lizzie-iii-caro_kaan_engine/history.csv
Output file: championship/lizzie-iii-caro_kaan_engine/move.csv
We are playing as White
Move history:
8 | R N B Q K B N R 
7 | P P P P P P P P 
6 | _ _ _ _ _ _ _ _ 
5 | _ _ _ _ _ _ _ _ 
4 | _ _ _ _ _ _ _ _ 
3 | _ _ _ _ _ _ _ _ 
2 | P P P P P P P P 
1 | R N B Q K B N R 
-------------------
  | A B C D E F G H 

It is white's turn to play.
AI's move: g1f3
Move written: g1f3
[32;1m[Game] [0mPlayer's error code: 0
[32;1m[Game] [0mChecking move validity...
[32;1m[Board] [0mInitializing board...
[32;1m[Board] [0mLoading history file `championship/lizzie-iii-caro_kaan_engine/history.csv`...
[32;1m[Board] [0mLoaded 0 move(s).
[32;1m[Board] [0mLoading move file `championship/lizzie-iii-caro_kaan_engine/move.csv`...
[32;1m[Board] [0mWhite player is playing g1 to f3.
[32;1m[Board] [0m
[32;1m[Board] [0m    a b c d e f g h 
[32;1m[Board] [0m  -------------------
[32;1m[Board] [0m8 ||[30;1mr[0m|[30;1mk[0m|[30;1mb[0m|[30;1mQ[0m|[30;1mK[0m|[30;1mb[0m|[30;1mk[0m|[30;1mr[0m|| 8
[32;1m[Board] [0m  -------------------
[32;1m[Board] [0m7 ||[30;1mp[0m|[30;1mp[0m|[30;1mp[0m|[30;1mp[0m|[30;1mp[0m|[30;1mp[0m|[30;1mp[0m|[30;1mp[0m|| 7
[32;1m[Board] [0m  -------------------
[32;1m[Board] [0m6 ||[7;1m [0m| |[7;1m [0m| |[7;1m [0m| |[7;1m [0m| || 6
[32;1m[Board] [0m  -------------------
[32;1m[Board] [0m5 || |[7;1m [0m| |[7;1m [0m| |[7;1m [0m| |[7;1m [0m|| 5
[32;1m[Board] [0m  -------------------
[32;1m[Board] [0m4 ||[7;1m [0m| |[7;1m [0m| |[7;1m [0m| |[7;1m [0m| || 4
[32;1m[Board] [0m  -------------------
[32;1m[Board] [0m3 || |[7;1m [0m| |[7;1m [0m| |[0;1mk[0m| |[7;1m [0m|| 3
[32;1m[Board] [0m  -------------------
[32;1m[Board] [0m2 ||[0;1mp[0m|[0;1mp[0m|[0;1mp[0m|[0;1mp[0m|[0;1mp[0m|[0;1mp[0m|[0;1mp[0m|[0;1mp[0m|| 2
[32;1m[Board] [0m  -------------------
[32;1m[Board] [0m1 ||[0;1mr[0m|[0;1mk[0m|[0;1mb[0m|[0;1mQ[0m|[0;1mK[0m|[0;1mb[0m| |[0;1mr[0m|| 1
[32;1m[Board] [0m  -------------------
[32;1m[Board] [0m    a b c d e f g h
[32;1m[Board] [0m
[32;1m[Referee] [0mThis is the turn of the Black player...
championship/lizzie-iii-caro_kaan_engine/history.csv
g1f3
[32;1m[Game] [0mPlayer's error code: 0
[32;1m[Game] [0mChecking move validity...
[32;1m[Board] [0mInitializing board...
[32;1m[Board] [0mLoading history file `championship/lizzie-iii-caro_kaan_engine/history.csv`...
[32;1m[Board] [0mLoaded 1 move(s).
[32;1m[Board] [0mLoading move file `championship/lizzie-iii-caro_kaan_engine/move.csv`...
[32;1m[Board] [0mBlack player is playing f7 to f5.
[32;1m[Board] [0m
[32;1m[Board] [0m    a b c d e f g h 
[32;1m[Board] [0m  -------------------
[32;1m[Board] [0m8 ||[30;1mr[0m|[30;1mk[0m|[30;1mb[0m|[30;1mQ[0m|[30;1mK[0m|[30;1mb[0m|[30;1mk[0m|[30;1mr[0m|| 8
[32;1m[Board] [0m  -------------------
[32;1m[Board] [0m7 ||[30;1mp[0m|[30;1mp[0m|[30;1mp[0m|[30;1mp[0m|[30;1mp[0m|[7;1m [0m|[30;1mp[0m|[30;1mp[0m|| 7
[32;1m[Board] [0m  -------------------
[32;1m[Board] [0m6 ||[7;1m [0m| |[7;1m [0m| |[7;1m [0m| |[7;1m [0m| || 6
[32;1m[Board] [0m  -------------------
[32;1m[Board] [0m5 || |[7;1m [0m| |[7;1m [0m| |[30;1mp[0m| |[7;1m [0m|| 5
[32;1m[Board] [0m  -------------------
[32;1m[Board] [0m4 ||[7;1m [0m| |[7;1m [0m| |[7;1m [0m| |[7;1m [0m| || 4
[32;1m[Board] [0m  -------------------
[32;1m[Board] [0m3 || |[7;1m [0m| |[7;1m [0m| |[0;1mk[0m| |[7;1m [0m|| 3
[32;1m[Board] [0m  -------------------
[32;1m[Board] [0m2 ||[0;1mp[0m|[0;1mp[0m|[0;1mp[0m|[0;1mp[0m|[0;1mp[0m|[0;1mp[0m|[0;1mp[0m|[0;1mp[0m|| 2
[32;1m[Board] [0m  -------------------
[32;1m[Board] [0m1 ||[0;1mr[0m|[0;1mk[0m|[0;1mb[0m|[0;1mQ[0m|[0;1mK[0m|[0;1mb[0m| |[0;1mr[0m|| 1
[32;1m[Board] [0m  -------------------
[32;1m[Board] [0m    a b c d e f g h
[32;1m[Board] [0m
[32;1m[Referee] [0mThis is the turn of the White player...
Input file: championship/lizzie-iii-caro_kaan_engine/history.csv
Output file: championship/lizzie-iii-caro_kaan_engine/move.csv
Turn of: white
Succesful move
g1f3
8 | R N B Q K B N R 
7 | P P P P P P P P 
6 | _ _ _ _ _ _ _ _ 
5 | _ _ _ _ _ _ _ _ 
4 | _ _ _ _ _ _ _ _ 
3 | _ _ _ _ _ N _ _ 
2 | P P P P P P P P 
1 | R N B Q K B _ R 
-------------------
  | A B C D E F G H 

Turn of: black
Succesful move
f7f5
8 | R N B Q K B N R 
7 | P P P P P _ P P 
6 | _ _ _ _ _ _ _ _ 
5 | _ _ _ _ _ P _ _ 
4 | _ _ _ _ _ _ _ _ 
3 | _ _ _ _ _ N _ _ 
2 | P P P P P P P P 
1 | R N B Q K B _ R 
-------------------
  | A B C D E F G H 

We are playing as White
Move history:
g1f3
f7f5
8 | R N B Q K B N R 
7 | P P P P P _ P P 
6 | _ _ _ _ _ _ _ _ 
5 | _ _ _ _ _ P _ _ 
4 | _ _ _ _ _ _ _ _ 
3 | _ _ _ _ _ N _ _ 
2 | P P P P P P P P 
1 | R N B Q K B _ R 
-------------------
  | A B C D E F G H 

It is white's turn to play.
AI's move: g2g3
Move written: g2g3
[32;1m[Game] [0mPlayer's error code: 0
[32;1m[Game] [0mChecking move validity...
[32;1m[Board] [0mInitializing board...
[32;1m[Board] [0mLoading history file `championship/lizzie-iii-caro_kaan_engine/history.csv`...
[32;1m[Board] [0mLoaded 2 move(s).
[32;1m[Board] [0mLoading move file `championship/lizzie-iii-caro_kaan_engine/move.csv`...
[32;1m[Board] [0mWhite player is playing g2 to g3.
[32;1m[Board] [0m
[32;1m[Board] [0m    a b c d e f g h 
[32;1m[Board] [0m  -------------------
[32;1m[Board] [0m8 ||[30;1mr[0m|[30;1mk[0m|[30;1mb[0m|[30;1mQ[0m|[30;1mK[0m|[30;1mb[0m|[30;1mk[0m|[30;1mr[0m|| 8
[32;1m[Board] [0m  -------------------
[32;1m[Board] [0m7 ||[30;1mp[0m|[30;1mp[0m|[30;1mp[0m|[30;1mp[0m|[30;1mp[0m|[7;1m [0m|[30;1mp[0m|[30;1mp[0m|| 7
[32;1m[Board] [0m  -------------------
[32;1m[Board] [0m6 ||[7;1m [0m| |[7;1m [0m| |[7;1m [0m| |[7;1m [0m| || 6
[32;1m[Board] [0m  -------------------
[32;1m[Board] [0m5 || |[7;1m [0m| |[7;1m [0m| |[30;1mp[0m| |[7;1m [0m|| 5
[32;1m[Board] [0m  -------------------
[32;1m[Board] [0m4 ||[7;1m [0m| |[7;1m [0m| |[7;1m [0m| |[7;1m [0m| || 4
[32;1m[Board] [0m  -------------------
[32;1m[Board] [0m3 || |[7;1m [0m| |[7;1m [0m| |[0;1mk[0m|[0;1mp[0m|[7;1m [0m|| 3
[32;1m[Board] [0m  -------------------
[32;1m[Board] [0m2 ||[0;1mp[0m|[0;1mp[0m|[0;1mp[0m|[0;1mp[0m|[0;1mp[0m|[0;1mp[0m|[7;1m [0m|[0;1mp[0m|| 2
[32;1m[Board] [0m  -------------------
[32;1m[Board] [0m1 ||[0;1mr[0m|[0;1mk[0m|[0;1mb[0m|[0;1mQ[0m|[0;1mK[0m|[0;1mb[0m| |[0;1mr[0m|| 1
[32;1m[Board] [0m  -------------------
[32;1m[Board] [0m    a b c d e f g h
[32;1m[Board] [0m
[32;1m[Referee] [0mThis is the turn of the Black player...
championship/lizzie-iii-caro_kaan_engine/history.csv
g1f3
f7f5
g2g3
[32;1m[Game] [0mPlayer's error code: 0
[32;1m[Game] [0mChecking move validity...
[32;1m[Board] [0mInitializing board...
[32;1m[Board] [0mLoading history file `championship/lizzie-iii-caro_kaan_engine/history.csv`...
[32;1m[Board] [0mLoaded 3 move(s).
[32;1m[Board] [0mLoading move file `championship/lizzie-iii-caro_kaan_engine/move.csv`...
[32;1m[Board] [0mBlack player is playing f5 to f4.
[32;1m[Board] [0m
[32;1m[Board] [0m    a b c d e f g h 
[32;1m[Board] [0m  -------------------
[32;1m[Board] [0m8 ||[30;1mr[0m|[30;1mk[0m|[30;1mb[0m|[30;1mQ[0m|[30;1mK[0m|[30;1mb[0m|[30;1mk[0m|[30;1mr[0m|| 8
[32;1m[Board] [0m  -------------------
[32;1m[Board] [0m7 ||[30;1mp[0m|[30;1mp[0m|[30;1mp[0m|[30;1mp[0m|[30;1mp[0m|[7;1m [0m|[30;1mp[0m|[30;1mp[0m|| 7
[32;1m[Board] [0m  -------------------
[32;1m[Board] [0m6 ||[7;1m [0m| |[7;1m [0m| |[7;1m [0m| |[7;1m [0m| || 6
[32;1m[Board] [0m  -------------------
[32;1m[Board] [0m5 || |[7;1m [0m| |[7;1m [0m| |[7;1m [0m| |[7;1m [0m|| 5
[32;1m[Board] [0m  -------------------
[32;1m[Board] [0m4 ||[7;1m [0m| |[7;1m [0m| |[7;1m [0m|[30;1mp[0m|[7;1m [0m| || 4
[32;1m[Board] [0m  -------------------
[32;1m[Board] [0m3 || |[7;1m [0m| |[7;1m [0m| |[0;1mk[0m|[0;1mp[0m|[7;1m [0m|| 3
[32;1m[Board] [0m  -------------------
[32;1m[Board] [0m2 ||[0;1mp[0m|[0;1mp[0m|[0;1mp[0m|[0;1mp[0m|[0;1mp[0m|[0;1mp[0m|[7;1m [0m|[0;1mp[0m|| 2
[32;1m[Board] [0m  -------------------
[32;1m[Board] [0m1 ||[0;1mr[0m|[0;1mk[0m|[0;1mb[0m|[0;1mQ[0m|[0;1mK[0m|[0;1mb[0m| |[0;1mr[0m|| 1
[32;1m[Board] [0m  -------------------
[32;1m[Board] [0m    a b c d e f g h
[32;1m[Board] [0m
[32;1m[Referee] [0mThis is the turn of the White player...
Input file: championship/lizzie-iii-caro_kaan_engine/history.csv
Output file: championship/lizzie-iii-caro_kaan_engine/move.csv
Turn of: white
Succesful move
g1f3
8 | R N B Q K B N R 
7 | P P P P P P P P 
6 | _ _ _ _ _ _ _ _ 
5 | _ _ _ _ _ _ _ _ 
4 | _ _ _ _ _ _ _ _ 
3 | _ _ _ _ _ N _ _ 
2 | P P P P P P P P 
1 | R N B Q K B _ R 
-------------------
  | A B C D E F G H 

Turn of: black
Succesful move
f7f5
8 | R N B Q K B N R 
7 | P P P P P _ P P 
6 | _ _ _ _ _ _ _ _ 
5 | _ _ _ _ _ P _ _ 
4 | _ _ _ _ _ _ _ _ 
3 | _ _ _ _ _ N _ _ 
2 | P P P P P P P P 
1 | R N B Q K B _ R 
-------------------
  | A B C D E F G H 

Turn of: white
Succesful move
g2g3
8 | R N B Q K B N R 
7 | P P P P P _ P P 
6 | _ _ _ _ _ _ _ _ 
5 | _ _ _ _ _ P _ _ 
4 | _ _ _ _ _ _ _ _ 
3 | _ _ _ _ _ N P _ 
2 | P P P P P P _ P 
1 | R N B Q K B _ R 
-------------------
  | A B C D E F G H 

Turn of: black
Succesful move
f5f4
8 | R N B Q K B N R 
7 | P P P P P _ P P 
6 | _ _ _ _ _ _ _ _ 
5 | _ _ _ _ _ _ _ _ 
4 | _ _ _ _ _ P _ _ 
3 | _ _ _ _ _ N P _ 
2 | P P P P P P _ P 
1 | R N B Q K B _ R 
-------------------
  | A B C D E F G H 

We are playing as White
Move history:
g1f3
f7f5
g2g3
f5f4
8 | R N B Q K B N R 
7 | P P P P P _ P P 
6 | _ _ _ _ _ _ _ _ 
5 | _ _ _ _ _ _ _ _ 
4 | _ _ _ _ _ P _ _ 
3 | _ _ _ _ _ N P _ 
2 | P P P P P P _ P 
1 | R N B Q K B _ R 
-------------------
  | A B C D E F G H 

It is white's turn to play.
AI's move: a2a4
Move written: a2a4
[32;1m[Game] [0mPlayer's error code: 0
[32;1m[Game] [0mChecking move validity...
[32;1m[Board] [0mInitializing board...
[32;1m[Board] [0mLoading history file `championship/lizzie-iii-caro_kaan_engine/history.csv`...
[32;1m[Board] [0mLoaded 4 move(s).
[32;1m[Board] [0mLoading move file `championship/lizzie-iii-caro_kaan_engine/move.csv`...
[32;1m[Board] [0mWhite player is playing a2 to a4.
[32;1m[Board] [0m
[32;1m[Board] [0m    a b c d e f g h 
[32;1m[Board] [0m  -------------------
[32;1m[Board] [0m8 ||[30;1mr[0m|[30;1mk[0m|[30;1mb[0m|[30;1mQ[0m|[30;1mK[0m|[30;1mb[0m|[30;1mk[0m|[30;1mr[0m|| 8
[32;1m[Board] [0m  -------------------
[32;1m[Board] [0m7 ||[30;1mp[0m|[30;1mp[0m|[30;1mp[0m|[30;1mp[0m|[30;1mp[0m|[7;1m [0m|[30;1mp[0m|[30;1mp[0m|| 7
[32;1m[Board] [0m  -------------------
[32;1m[Board] [0m6 ||[7;1m [0m| |[7;1m [0m| |[7;1m [0m| |[7;1m [0m| || 6
[32;1m[Board] [0m  -------------------
[32;1m[Board] [0m5 || |[7;1m [0m| |[7;1m [0m| |[7;1m [0m| |[7;1m [0m|| 5
[32;1m[Board] [0m  -------------------
[32;1m[Board] [0m4 ||[0;1mp[0m| |[7;1m [0m| |[7;1m [0m|[30;1mp[0m|[7;1m [0m| || 4
[32;1m[Board] [0m  -------------------
[32;1m[Board] [0m3 || |[7;1m [0m| |[7;1m [0m| |[0;1mk[0m|[0;1mp[0m|[7;1m [0m|| 3
[32;1m[Board] [0m  -------------------
[32;1m[Board] [0m2 ||[7;1m [0m|[0;1mp[0m|[0;1mp[0m|[0;1mp[0m|[0;1mp[0m|[0;1mp[0m|[7;1m [0m|[0;1mp[0m|| 2
[32;1m[Board] [0m  -------------------
[32;1m[Board] [0m1 ||[0;1mr[0m|[0;1mk[0m|[0;1mb[0m|[0;1mQ[0m|[0;1mK[0m|[0;1mb[0m| |[0;1mr[0m|| 1
[32;1m[Board] [0m  -------------------
[32;1m[Board] [0m    a b c d e f g h
[32;1m[Board] [0m
[32;1m[Referee] [0mThis is the turn of the Black player...
championship/lizzie-iii-caro_kaan_engine/history.csv
g1f3
f7f5
g2g3
f5f4
a2a4
[32;1m[Game] [0mPlayer's error code: 0
[32;1m[Game] [0mChecking move validity...
[32;1m[Board] [0mInitializing board...
[32;1m[Board] [0mLoading history file `championship/lizzie-iii-caro_kaan_engine/history.csv`...
[32;1m[Board] [0mLoaded 5 move(s).
[32;1m[Board] [0mLoading move file `championship/lizzie-iii-caro_kaan_engine/move.csv`...
[32;1m[Board] [0mBlack player is playing e7 to e6.
[32;1m[Board] [0m
[32;1m[Board] [0m    a b c d e f g h 
[32;1m[Board] [0m  -------------------
[32;1m[Board] [0m8 ||[30;1mr[0m|[30;1mk[0m|[30;1mb[0m|[30;1mQ[0m|[30;1mK[0m|[30;1mb[0m|[30;1mk[0m|[30;1mr[0m|| 8
[32;1m[Board] [0m  -------------------
[32;1m[Board] [0m7 ||[30;1mp[0m|[30;1mp[0m|[30;1mp[0m|[30;1mp[0m| |[7;1m [0m|[30;1mp[0m|[30;1mp[0m|| 7
[32;1m[Board] [0m  -------------------
[32;1m[Board] [0m6 ||[7;1m [0m| |[7;1m [0m| |[30;1mp[0m| |[7;1m [0m| || 6
[32;1m[Board] [0m  -------------------
[32;1m[Board] [0m5 || |[7;1m [0m| |[7;1m [0m| |[7;1m [0m| |[7;1m [0m|| 5
[32;1m[Board] [0m  -------------------
[32;1m[Board] [0m4 ||[0;1mp[0m| |[7;1m [0m| |[7;1m [0m|[30;1mp[0m|[7;1m [0m| || 4
[32;1m[Board] [0m  -------------------
[32;1m[Board] [0m3 || |[7;1m [0m| |[7;1m [0m| |[0;1mk[0m|[0;1mp[0m|[7;1m [0m|| 3
[32;1m[Board] [0m  -------------------
[32;1m[Board] [0m2 ||[7;1m [0m|[0;1mp[0m|[0;1mp[0m|[0;1mp[0m|[0;1mp[0m|[0;1mp[0m|[7;1m [0m|[0;1mp[0m|| 2
[32;1m[Board] [0m  -------------------
[32;1m[Board] [0m1 ||[0;1mr[0m|[0;1mk[0m|[0;1mb[0m|[0;1mQ[0m|[0;1mK[0m|[0;1mb[0m| |[0;1mr[0m|| 1
[32;1m[Board] [0m  -------------------
[32;1m[Board] [0m    a b c d e f g h
[32;1m[Board] [0m
[32;1m[Referee] [0mThis is the turn of the White player...
Input file: championship/lizzie-iii-caro_kaan_engine/history.csv
Output file: championship/lizzie-iii-caro_kaan_engine/move.csv
Turn of: white
Succesful move
g1f3
8 | R N B Q K B N R 
7 | P P P P P P P P 
6 | _ _ _ _ _ _ _ _ 
5 | _ _ _ _ _ _ _ _ 
4 | _ _ _ _ _ _ _ _ 
3 | _ _ _ _ _ N _ _ 
2 | P P P P P P P P 
1 | R N B Q K B _ R 
-------------------
  | A B C D E F G H 

Turn of: black
Succesful move
f7f5
8 | R N B Q K B N R 
7 | P P P P P _ P P 
6 | _ _ _ _ _ _ _ _ 
5 | _ _ _ _ _ P _ _ 
4 | _ _ _ _ _ _ _ _ 
3 | _ _ _ _ _ N _ _ 
2 | P P P P P P P P 
1 | R N B Q K B _ R 
-------------------
  | A B C D E F G H 

Turn of: white
Succesful move
g2g3
8 | R N B Q K B N R 
7 | P P P P P _ P P 
6 | _ _ _ _ _ _ _ _ 
5 | _ _ _ _ _ P _ _ 
4 | _ _ _ _ _ _ _ _ 
3 | _ _ _ _ _ N P _ 
2 | P P P P P P _ P 
1 | R N B Q K B _ R 
-------------------
  | A B C D E F G H 

Turn of: black
Succesful move
f5f4
8 | R N B Q K B N R 
7 | P P P P P _ P P 
6 | _ _ _ _ _ _ _ _ 
5 | _ _ _ _ _ _ _ _ 
4 | _ _ _ _ _ P _ _ 
3 | _ _ _ _ _ N P _ 
2 | P P P P P P _ P 
1 | R N B Q K B _ R 
-------------------
  | A B C D E F G H 

Turn of: white
Succesful move
a2a4
8 | R N B Q K B N R 
7 | P P P P P _ P P 
6 | _ _ _ _ _ _ _ _ 
5 | _ _ _ _ _ _ _ _ 
4 | P _ _ _ _ P _ _ 
3 | _ _ _ _ _ N P _ 
2 | _ P P P P P _ P 
1 | R N B Q K B _ R 
-------------------
  | A B C D E F G H 

Turn of: black
Succesful move
e7e6
8 | R N B Q K B N R 
7 | P P P P _ _ P P 
6 | _ _ _ _ P _ _ _ 
5 | _ _ _ _ _ _ _ _ 
4 | P _ _ _ _ P _ _ 
3 | _ _ _ _ _ N P _ 
2 | _ P P P P P _ P 
1 | R N B Q K B _ R 
-------------------
  | A B C D E F G H 

We are playing as White
Move history:
g1f3
f7f5
g2g3
f5f4
a2a4
e7e6
8 | R N B Q K B N R 
7 | P P P P _ _ P P 
6 | _ _ _ _ P _ _ _ 
5 | _ _ _ _ _ _ _ _ 
4 | P _ _ _ _ P _ _ 
3 | _ _ _ _ _ N P _ 
2 | _ P P P P P _ P 
1 | R N B Q K B _ R 
-------------------
  | A B C D E F G H 

It is white's turn to play.
AI's move: a1a3
Move written: a1a3
[32;1m[Game] [0mPlayer's error code: 0
[32;1m[Game] [0mChecking move validity...
[32;1m[Board] [0mInitializing board...
[32;1m[Board] [0mLoading history file `championship/lizzie-iii-caro_kaan_engine/history.csv`...
[32;1m[Board] [0mLoaded 6 move(s).
[32;1m[Board] [0mLoading move file `championship/lizzie-iii-caro_kaan_engine/move.csv`...
[32;1m[Board] [0mWhite player is playing a1 to a3.
[32;1m[Board] [0m
[32;1m[Board] [0m    a b c d e f g h 
[32;1m[Board] [0m  -------------------
[32;1m[Board] [0m8 ||[30;1mr[0m|[30;1mk[0m|[30;1mb[0m|[30;1mQ[0m|[30;1mK[0m|[30;1mb[0m|[30;1mk[0m|[30;1mr[0m|| 8
[32;1m[Board] [0m  -------------------
[32;1m[Board] [0m7 ||[30;1mp[0m|[30;1mp[0m|[30;1mp[0m|[30;1mp[0m| |[7;1m [0m|[30;1mp[0m|[30;1mp[0m|| 7
[32;1m[Board] [0m  -------------------
[32;1m[Board] [0m6 ||[7;1m [0m| |[7;1m [0m| |[30;1mp[0m| |[7;1m [0m| || 6
[32;1m[Board] [0m  -------------------
[32;1m[Board] [0m5 || |[7;1m [0m| |[7;1m [0m| |[7;1m [0m| |[7;1m [0m|| 5
[32;1m[Board] [0m  -------------------
[32;1m[Board] [0m4 ||[0;1mp[0m| |[7;1m [0m| |[7;1m [0m|[30;1mp[0m|[7;1m [0m| || 4
[32;1m[Board] [0m  -------------------
[32;1m[Board] [0m3 ||[0;1mr[0m|[7;1m [0m| |[7;1m [0m| |[0;1mk[0m|[0;1mp[0m|[7;1m [0m|| 3
[32;1m[Board] [0m  -------------------
[32;1m[Board] [0m2 ||[7;1m [0m|[0;1mp[0m|[0;1mp[0m|[0;1mp[0m|[0;1mp[0m|[0;1mp[0m|[7;1m [0m|[0;1mp[0m|| 2
[32;1m[Board] [0m  -------------------
[32;1m[Board] [0m1 || |[0;1mk[0m|[0;1mb[0m|[0;1mQ[0m|[0;1mK[0m|[0;1mb[0m| |[0;1mr[0m|| 1
[32;1m[Board] [0m  -------------------
[32;1m[Board] [0m    a b c d e f g h
[32;1m[Board] [0m
[32;1m[Referee] [0mThis is the turn of the Black player...
championship/lizzie-iii-caro_kaan_engine/history.csv
g1f3
f7f5
g2g3
f5f4
a2a4
e7e6
a1a3
[32;1m[Game] [0mPlayer's error code: 0
[32;1m[Game] [0mChecking move validity...
[32;1m[Board] [0mInitializing board...
[32;1m[Board] [0mLoading history file `championship/lizzie-iii-caro_kaan_engine/history.csv`...
[32;1m[Board] [0mLoaded 7 move(s).
[32;1m[Board] [0mLoading move file `championship/lizzie-iii-caro_kaan_engine/move.csv`...
[32;1m[Board] [0mBlack player is playing d8 to g5.
[32;1m[Board] [0m
[32;1m[Board] [0m    a b c d e f g h 
[32;1m[Board] [0m  -------------------
[32;1m[Board] [0m8 ||[30;1mr[0m|[30;1mk[0m|[30;1mb[0m| |[30;1mK[0m|[30;1mb[0m|[30;1mk[0m|[30;1mr[0m|| 8
[32;1m[Board] [0m  -------------------
[32;1m[Board] [0m7 ||[30;1mp[0m|[30;1mp[0m|[30;1mp[0m|[30;1mp[0m| |[7;1m [0m|[30;1mp[0m|[30;1mp[0m|| 7
[32;1m[Board] [0m  -------------------
[32;1m[Board] [0m6 ||[7;1m [0m| |[7;1m [0m| |[30;1mp[0m| |[7;1m [0m| || 6
[32;1m[Board] [0m  -------------------
[32;1m[Board] [0m5 || |[7;1m [0m| |[7;1m [0m| |[7;1m [0m|[30;1mQ[0m|[7;1m [0m|| 5
[32;1m[Board] [0m  -------------------
[32;1m[Board] [0m4 ||[0;1mp[0m| |[7;1m [0m| |[7;1m [0m|[30;1mp[0m|[7;1m [0m| || 4
[32;1m[Board] [0m  -------------------
[32;1m[Board] [0m3 ||[0;1mr[0m|[7;1m [0m| |[7;1m [0m| |[0;1mk[0m|[0;1mp[0m|[7;1m [0m|| 3
[32;1m[Board] [0m  -------------------
[32;1m[Board] [0m2 ||[7;1m [0m|[0;1mp[0m|[0;1mp[0m|[0;1mp[0m|[0;1mp[0m|[0;1mp[0m|[7;1m [0m|[0;1mp[0m|| 2
[32;1m[Board] [0m  -------------------
[32;1m[Board] [0m1 || |[0;1mk[0m|[0;1mb[0m|[0;1mQ[0m|[0;1mK[0m|[0;1mb[0m| |[0;1mr[0m|| 1
[32;1m[Board] [0m  -------------------
[32;1m[Board] [0m    a b c d e f g h
[32;1m[Board] [0m
[32;1m[Referee] [0mThis is the turn of the White player...
Input file: championship/lizzie-iii-caro_kaan_engine/history.csv
Output file: championship/lizzie-iii-caro_kaan_engine/move.csv
Turn of: white
Succesful move
g1f3
8 | R N B Q K B N R 
7 | P P P P P P P P 
6 | _ _ _ _ _ _ _ _ 
5 | _ _ _ _ _ _ _ _ 
4 | _ _ _ _ _ _ _ _ 
3 | _ _ _ _ _ N _ _ 
2 | P P P P P P P P 
1 | R N B Q K B _ R 
-------------------
  | A B C D E F G H 

Turn of: black
Succesful move
f7f5
8 | R N B Q K B N R 
7 | P P P P P _ P P 
6 | _ _ _ _ _ _ _ _ 
5 | _ _ _ _ _ P _ _ 
4 | _ _ _ _ _ _ _ _ 
3 | _ _ _ _ _ N _ _ 
2 | P P P P P P P P 
1 | R N B Q K B _ R 
-------------------
  | A B C D E F G H 

Turn of: white
Succesful move
g2g3
8 | R N B Q K B N R 
7 | P P P P P _ P P 
6 | _ _ _ _ _ _ _ _ 
5 | _ _ _ _ _ P _ _ 
4 | _ _ _ _ _ _ _ _ 
3 | _ _ _ _ _ N P _ 
2 | P P P P P P _ P 
1 | R N B Q K B _ R 
-------------------
  | A B C D E F G H 

Turn of: black
Succesful move
f5f4
8 | R N B Q K B N R 
7 | P P P P P _ P P 
6 | _ _ _ _ _ _ _ _ 
5 | _ _ _ _ _ _ _ _ 
4 | _ _ _ _ _ P _ _ 
3 | _ _ _ _ _ N P _ 
2 | P P P P P P _ P 
1 | R N B Q K B _ R 
-------------------
  | A B C D E F G H 

Turn of: white
Succesful move
a2a4
8 | R N B Q K B N R 
7 | P P P P P _ P P 
6 | _ _ _ _ _ _ _ _ 
5 | _ _ _ _ _ _ _ _ 
4 | P _ _ _ _ P _ _ 
3 | _ _ _ _ _ N P _ 
2 | _ P P P P P _ P 
1 | R N B Q K B _ R 
-------------------
  | A B C D E F G H 

Turn of: black
Succesful move
e7e6
8 | R N B Q K B N R 
7 | P P P P _ _ P P 
6 | _ _ _ _ P _ _ _ 
5 | _ _ _ _ _ _ _ _ 
4 | P _ _ _ _ P _ _ 
3 | _ _ _ _ _ N P _ 
2 | _ P P P P P _ P 
1 | R N B Q K B _ R 
-------------------
  | A B C D E F G H 

Turn of: white
Succesful move
a1a3
8 | R N B Q K B N R 
7 | P P P P _ _ P P 
6 | _ _ _ _ P _ _ _ 
5 | _ _ _ _ _ _ _ _ 
4 | P _ _ _ _ P _ _ 
3 | R _ _ _ _ N P _ 
2 | _ P P P P P _ P 
1 | _ N B Q K B _ R 
-------------------
  | A B C D E F G H 

Turn of: black
Succesful move
d8g5
8 | R N B _ K B N R 
7 | P P P P _ _ P P 
6 | _ _ _ _ P _ _ _ 
5 | _ _ _ _ _ _ Q _ 
4 | P _ _ _ _ P _ _ 
3 | R _ _ _ _ N P _ 
2 | _ P P P P P _ P 
1 | _ N B Q K B _ R 
-------------------
  | A B C D E F G H 

We are playing as White
Move history:
g1f3
f7f5
g2g3
f5f4
a2a4
e7e6
a1a3
d8g5
8 | R N B _ K B N R 
7 | P P P P _ _ P P 
6 | _ _ _ _ P _ _ _ 
5 | _ _ _ _ _ _ Q _ 
4 | P _ _ _ _ P _ _ 
3 | R _ _ _ _ N P _ 
2 | _ P P P P P _ P 
1 | _ N B Q K B _ R 
-------------------
  | A B C D E F G H 

It is white's turn to play.
AI's move: f3g1
Move written: f3g1
[32;1m[Game] [0mPlayer's error code: 0
[32;1m[Game] [0mChecking move validity...
[32;1m[Board] [0mInitializing board...
[32;1m[Board] [0mLoading history file `championship/lizzie-iii-caro_kaan_engine/history.csv`...
[32;1m[Board] [0mLoaded 8 move(s).
[32;1m[Board] [0mLoading move file `championship/lizzie-iii-caro_kaan_engine/move.csv`...
[32;1m[Board] [0mWhite player is playing f3 to g1.
[32;1m[Board] [0m
[32;1m[Board] [0m    a b c d e f g h 
[32;1m[Board] [0m  -------------------
[32;1m[Board] [0m8 ||[30;1mr[0m|[30;1mk[0m|[30;1mb[0m| |[30;1mK[0m|[30;1mb[0m|[30;1mk[0m|[30;1mr[0m|| 8
[32;1m[Board] [0m  -------------------
[32;1m[Board] [0m7 ||[30;1mp[0m|[30;1mp[0m|[30;1mp[0m|[30;1mp[0m| |[7;1m [0m|[30;1mp[0m|[30;1mp[0m|| 7
[32;1m[Board] [0m  -------------------
[32;1m[Board] [0m6 ||[7;1m [0m| |[7;1m [0m| |[30;1mp[0m| |[7;1m [0m| || 6
[32;1m[Board] [0m  -------------------
[32;1m[Board] [0m5 || |[7;1m [0m| |[7;1m [0m| |[7;1m [0m|[30;1mQ[0m|[7;1m [0m|| 5
[32;1m[Board] [0m  -------------------
[32;1m[Board] [0m4 ||[0;1mp[0m| |[7;1m [0m| |[7;1m [0m|[30;1mp[0m|[7;1m [0m| || 4
[32;1m[Board] [0m  -------------------
[32;1m[Board] [0m3 ||[0;1mr[0m|[7;1m [0m| |[7;1m [0m| |[7;1m [0m|[0;1mp[0m|[7;1m [0m|| 3
[32;1m[Board] [0m  -------------------
[32;1m[Board] [0m2 ||[7;1m [0m|[0;1mp[0m|[0;1mp[0m|[0;1mp[0m|[0;1mp[0m|[0;1mp[0m|[7;1m [0m|[0;1mp[0m|| 2
[32;1m[Board] [0m  -------------------
[32;1m[Board] [0m1 || |[0;1mk[0m|[0;1mb[0m|[0;1mQ[0m|[0;1mK[0m|[0;1mb[0m|[0;1mk[0m|[0;1mr[0m|| 1
[32;1m[Board] [0m  -------------------
[32;1m[Board] [0m    a b c d e f g h
[32;1m[Board] [0m
[32;1m[Referee] [0mThis is the turn of the Black player...
championship/lizzie-iii-caro_kaan_engine/history.csv
g1f3
f7f5
g2g3
f5f4
a2a4
e7e6
a1a3
d8g5
f3g1
[32;1m[Game] [0mPlayer's error code: 0
[32;1m[Game] [0mChecking move validity...
[32;1m[Board] [0mInitializing board...
[32;1m[Board] [0mLoading history file `championship/lizzie-iii-caro_kaan_engine/history.csv`...
[32;1m[Board] [0mLoaded 9 move(s).
[32;1m[Board] [0mLoading move file `championship/lizzie-iii-caro_kaan_engine/move.csv`...
[32;1m[Board] [0mBlack player is playing f8 to a3.
[32;1m[Board] [0m[5;1mBlack Bishop is taking White Rook.[0m
[32;1m[Board] [0m
[32;1m[Board] [0m    a b c d e f g h 
[32;1m[Board] [0m  -------------------
[32;1m[Board] [0m8 ||[30;1mr[0m|[30;1mk[0m|[30;1mb[0m| |[30;1mK[0m| |[30;1mk[0m|[30;1mr[0m|| 8
[32;1m[Board] [0m  -------------------
[32;1m[Board] [0m7 ||[30;1mp[0m|[30;1mp[0m|[30;1mp[0m|[30;1mp[0m| |[7;1m [0m|[30;1mp[0m|[30;1mp[0m|| 7
[32;1m[Board] [0m  -------------------
[32;1m[Board] [0m6 ||[7;1m [0m| |[7;1m [0m| |[30;1mp[0m| |[7;1m [0m| || 6
[32;1m[Board] [0m  -------------------
[32;1m[Board] [0m5 || |[7;1m [0m| |[7;1m [0m| |[7;1m [0m|[30;1mQ[0m|[7;1m [0m|| 5
[32;1m[Board] [0m  -------------------
[32;1m[Board] [0m4 ||[0;1mp[0m| |[7;1m [0m| |[7;1m [0m|[30;1mp[0m|[7;1m [0m| || 4
[32;1m[Board] [0m  -------------------
[32;1m[Board] [0m3 ||[30;1mb[0m|[7;1m [0m| |[7;1m [0m| |[7;1m [0m|[0;1mp[0m|[7;1m [0m|| 3
[32;1m[Board] [0m  -------------------
[32;1m[Board] [0m2 ||[7;1m [0m|[0;1mp[0m|[0;1mp[0m|[0;1mp[0m|[0;1mp[0m|[0;1mp[0m|[7;1m [0m|[0;1mp[0m|| 2
[32;1m[Board] [0m  -------------------
[32;1m[Board] [0m1 || |[0;1mk[0m|[0;1mb[0m|[0;1mQ[0m|[0;1mK[0m|[0;1mb[0m|[0;1mk[0m|[0;1mr[0m|| 1
[32;1m[Board] [0m  -------------------
[32;1m[Board] [0m    a b c d e f g h
[32;1m[Board] [0m
[32;1m[Referee] [0mThis is the turn of the White player...
Input file: championship/lizzie-iii-caro_kaan_engine/history.csv
Output file: championship/lizzie-iii-caro_kaan_engine/move.csv
Turn of: white
Succesful move
g1f3
8 | R N B Q K B N R 
7 | P P P P P P P P 
6 | _ _ _ _ _ _ _ _ 
5 | _ _ _ _ _ _ _ _ 
4 | _ _ _ _ _ _ _ _ 
3 | _ _ _ _ _ N _ _ 
2 | P P P P P P P P 
1 | R N B Q K B _ R 
-------------------
  | A B C D E F G H 

Turn of: black
Succesful move
f7f5
8 | R N B Q K B N R 
7 | P P P P P _ P P 
6 | _ _ _ _ _ _ _ _ 
5 | _ _ _ _ _ P _ _ 
4 | _ _ _ _ _ _ _ _ 
3 | _ _ _ _ _ N _ _ 
2 | P P P P P P P P 
1 | R N B Q K B _ R 
-------------------
  | A B C D E F G H 

Turn of: white
Succesful move
g2g3
8 | R N B Q K B N R 
7 | P P P P P _ P P 
6 | _ _ _ _ _ _ _ _ 
5 | _ _ _ _ _ P _ _ 
4 | _ _ _ _ _ _ _ _ 
3 | _ _ _ _ _ N P _ 
2 | P P P P P P _ P 
1 | R N B Q K B _ R 
-------------------
  | A B C D E F G H 

Turn of: black
Succesful move
f5f4
8 | R N B Q K B N R 
7 | P P P P P _ P P 
6 | _ _ _ _ _ _ _ _ 
5 | _ _ _ _ _ _ _ _ 
4 | _ _ _ _ _ P _ _ 
3 | _ _ _ _ _ N P _ 
2 | P P P P P P _ P 
1 | R N B Q K B _ R 
-------------------
  | A B C D E F G H 

Turn of: white
Succesful move
a2a4
8 | R N B Q K B N R 
7 | P P P P P _ P P 
6 | _ _ _ _ _ _ _ _ 
5 | _ _ _ _ _ _ _ _ 
4 | P _ _ _ _ P _ _ 
3 | _ _ _ _ _ N P _ 
2 | _ P P P P P _ P 
1 | R N B Q K B _ R 
-------------------
  | A B C D E F G H 

Turn of: black
Succesful move
e7e6
8 | R N B Q K B N R 
7 | P P P P _ _ P P 
6 | _ _ _ _ P _ _ _ 
5 | _ _ _ _ _ _ _ _ 
4 | P _ _ _ _ P _ _ 
3 | _ _ _ _ _ N P _ 
2 | _ P P P P P _ P 
1 | R N B Q K B _ R 
-------------------
  | A B C D E F G H 

Turn of: white
Succesful move
a1a3
8 | R N B Q K B N R 
7 | P P P P _ _ P P 
6 | _ _ _ _ P _ _ _ 
5 | _ _ _ _ _ _ _ _ 
4 | P _ _ _ _ P _ _ 
3 | R _ _ _ _ N P _ 
2 | _ P P P P P _ P 
1 | _ N B Q K B _ R 
-------------------
  | A B C D E F G H 

Turn of: black
Succesful move
d8g5
8 | R N B _ K B N R 
7 | P P P P _ _ P P 
6 | _ _ _ _ P _ _ _ 
5 | _ _ _ _ _ _ Q _ 
4 | P _ _ _ _ P _ _ 
3 | R _ _ _ _ N P _ 
2 | _ P P P P P _ P 
1 | _ N B Q K B _ R 
-------------------
  | A B C D E F G H 

Turn of: white
Succesful move
f3g1
8 | R N B _ K B N R 
7 | P P P P _ _ P P 
6 | _ _ _ _ P _ _ _ 
5 | _ _ _ _ _ _ Q _ 
4 | P _ _ _ _ P _ _ 
3 | R _ _ _ _ _ P _ 
2 | _ P P P P P _ P 
1 | _ N B Q K B N R 
-------------------
  | A B C D E F G H 

Turn of: black
Succesful move
f8a3
8 | R N B _ K _ N R 
7 | P P P P _ _ P P 
6 | _ _ _ _ P _ _ _ 
5 | _ _ _ _ _ _ Q _ 
4 | P _ _ _ _ P _ _ 
3 | B _ _ _ _ _ P _ 
2 | _ P P P P P _ P 
1 | _ N B Q K B N R 
-------------------
  | A B C D E F G H 

We are playing as White
Move history:
g1f3
f7f5
g2g3
f5f4
a2a4
e7e6
a1a3
d8g5
f3g1
f8a3
8 | R N B _ K _ N R 
7 | P P P P _ _ P P 
6 | _ _ _ _ P _ _ _ 
5 | _ _ _ _ _ _ Q _ 
4 | P _ _ _ _ P _ _ 
3 | B _ _ _ _ _ P _ 
2 | _ P P P P P _ P 
1 | _ N B Q K B N R 
-------------------
  | A B C D E F G H 

It is white's turn to play.
AI's move: b1c3
Move written: b1c3
[32;1m[Game] [0mPlayer's error code: 0
[32;1m[Game] [0mChecking move validity...
[32;1m[Board] [0mInitializing board...
[32;1m[Board] [0mLoading history file `championship/lizzie-iii-caro_kaan_engine/history.csv`...
[32;1m[Board] [0mLoaded 10 move(s).
[32;1m[Board] [0mLoading move file `championship/lizzie-iii-caro_kaan_engine/move.csv`...
[32;1m[Board] [0mWhite player is playing b1 to c3.
[32;1m[Board] [0m
[32;1m[Board] [0m    a b c d e f g h 
[32;1m[Board] [0m  -------------------
[32;1m[Board] [0m8 ||[30;1mr[0m|[30;1mk[0m|[30;1mb[0m| |[30;1mK[0m| |[30;1mk[0m|[30;1mr[0m|| 8
[32;1m[Board] [0m  -------------------
[32;1m[Board] [0m7 ||[30;1mp[0m|[30;1mp[0m|[30;1mp[0m|[30;1mp[0m| |[7;1m [0m|[30;1mp[0m|[30;1mp[0m|| 7
[32;1m[Board] [0m  -------------------
[32;1m[Board] [0m6 ||[7;1m [0m| |[7;1m [0m| |[30;1mp[0m| |[7;1m [0m| || 6
[32;1m[Board] [0m  -------------------
[32;1m[Board] [0m5 || |[7;1m [0m| |[7;1m [0m| |[7;1m [0m|[30;1mQ[0m|[7;1m [0m|| 5
[32;1m[Board] [0m  -------------------
[32;1m[Board] [0m4 ||[0;1mp[0m| |[7;1m [0m| |[7;1m [0m|[30;1mp[0m|[7;1m [0m| || 4
[32;1m[Board] [0m  -------------------
[32;1m[Board] [0m3 ||[30;1mb[0m|[7;1m [0m|[0;1mk[0m|[7;1m [0m| |[7;1m [0m|[0;1mp[0m|[7;1m [0m|| 3
[32;1m[Board] [0m  -------------------
[32;1m[Board] [0m2 ||[7;1m [0m|[0;1mp[0m|[0;1mp[0m|[0;1mp[0m|[0;1mp[0m|[0;1mp[0m|[7;1m [0m|[0;1mp[0m|| 2
[32;1m[Board] [0m  -------------------
[32;1m[Board] [0m1 || |[7;1m [0m|[0;1mb[0m|[0;1mQ[0m|[0;1mK[0m|[0;1mb[0m|[0;1mk[0m|[0;1mr[0m|| 1
[32;1m[Board] [0m  -------------------
[32;1m[Board] [0m    a b c d e f g h
[32;1m[Board] [0m
[32;1m[Referee] [0mThis is the turn of the Black player...
championship/lizzie-iii-caro_kaan_engine/history.csv
g1f3
f7f5
g2g3
f5f4
a2a4
e7e6
a1a3
d8g5
f3g1
f8a3
b1c3
[32;1m[Game] [0mPlayer's error code: 0
[32;1m[Game] [0mChecking move validity...
[32;1m[Board] [0mInitializing board...
[32;1m[Board] [0mLoading history file `championship/lizzie-iii-caro_kaan_engine/history.csv`...
[32;1m[Board] [0mLoaded 11 move(s).
[32;1m[Board] [0mLoading move file `championship/lizzie-iii-caro_kaan_engine/move.csv`...
[32;1m[Board] [0mBlack player is playing a3 to f8.
[32;1m[Board] [0m
[32;1m[Board] [0m    a b c d e f g h 
[32;1m[Board] [0m  -------------------
[32;1m[Board] [0m8 ||[30;1mr[0m|[30;1mk[0m|[30;1mb[0m| |[30;1mK[0m|[30;1mb[0m|[30;1mk[0m|[30;1mr[0m|| 8
[32;1m[Board] [0m  -------------------
[32;1m[Board] [0m7 ||[30;1mp[0m|[30;1mp[0m|[30;1mp[0m|[30;1mp[0m| |[7;1m [0m|[30;1mp[0m|[30;1mp[0m|| 7
[32;1m[Board] [0m  -------------------
[32;1m[Board] [0m6 ||[7;1m [0m| |[7;1m [0m| |[30;1mp[0m| |[7;1m [0m| || 6
[32;1m[Board] [0m  -------------------
[32;1m[Board] [0m5 || |[7;1m [0m| |[7;1m [0m| |[7;1m [0m|[30;1mQ[0m|[7;1m [0m|| 5
[32;1m[Board] [0m  -------------------
[32;1m[Board] [0m4 ||[0;1mp[0m| |[7;1m [0m| |[7;1m [0m|[30;1mp[0m|[7;1m [0m| || 4
[32;1m[Board] [0m  -------------------
[32;1m[Board] [0m3 || |[7;1m [0m|[0;1mk[0m|[7;1m [0m| |[7;1m [0m|[0;1mp[0m|[7;1m [0m|| 3
[32;1m[Board] [0m  -------------------
[32;1m[Board] [0m2 ||[7;1m [0m|[0;1mp[0m|[0;1mp[0m|[0;1mp[0m|[0;1mp[0m|[0;1mp[0m|[7;1m [0m|[0;1mp[0m|| 2
[32;1m[Board] [0m  -------------------
[32;1m[Board] [0m1 || |[7;1m [0m|[0;1mb[0m|[0;1mQ[0m|[0;1mK[0m|[0;1mb[0m|[0;1mk[0m|[0;1mr[0m|| 1
[32;1m[Board] [0m  -------------------
[32;1m[Board] [0m    a b c d e f g h
[32;1m[Board] [0m
[32;1m[Referee] [0mThis is the turn of the White player...
Input file: championship/lizzie-iii-caro_kaan_engine/history.csv
Output file: championship/lizzie-iii-caro_kaan_engine/move.csv
Turn of: white
Succesful move
g1f3
8 | R N B Q K B N R 
7 | P P P P P P P P 
6 | _ _ _ _ _ _ _ _ 
5 | _ _ _ _ _ _ _ _ 
4 | _ _ _ _ _ _ _ _ 
3 | _ _ _ _ _ N _ _ 
2 | P P P P P P P P 
1 | R N B Q K B _ R 
-------------------
  | A B C D E F G H 

Turn of: black
Succesful move
f7f5
8 | R N B Q K B N R 
7 | P P P P P _ P P 
6 | _ _ _ _ _ _ _ _ 
5 | _ _ _ _ _ P _ _ 
4 | _ _ _ _ _ _ _ _ 
3 | _ _ _ _ _ N _ _ 
2 | P P P P P P P P 
1 | R N B Q K B _ R 
-------------------
  | A B C D E F G H 

Turn of: white
Succesful move
g2g3
8 | R N B Q K B N R 
7 | P P P P P _ P P 
6 | _ _ _ _ _ _ _ _ 
5 | _ _ _ _ _ P _ _ 
4 | _ _ _ _ _ _ _ _ 
3 | _ _ _ _ _ N P _ 
2 | P P P P P P _ P 
1 | R N B Q K B _ R 
-------------------
  | A B C D E F G H 

Turn of: black
Succesful move
f5f4
8 | R N B Q K B N R 
7 | P P P P P _ P P 
6 | _ _ _ _ _ _ _ _ 
5 | _ _ _ _ _ _ _ _ 
4 | _ _ _ _ _ P _ _ 
3 | _ _ _ _ _ N P _ 
2 | P P P P P P _ P 
1 | R N B Q K B _ R 
-------------------
  | A B C D E F G H 

Turn of: white
Succesful move
a2a4
8 | R N B Q K B N R 
7 | P P P P P _ P P 
6 | _ _ _ _ _ _ _ _ 
5 | _ _ _ _ _ _ _ _ 
4 | P _ _ _ _ P _ _ 
3 | _ _ _ _ _ N P _ 
2 | _ P P P P P _ P 
1 | R N B Q K B _ R 
-------------------
  | A B C D E F G H 

Turn of: black
Succesful move
e7e6
8 | R N B Q K B N R 
7 | P P P P _ _ P P 
6 | _ _ _ _ P _ _ _ 
5 | _ _ _ _ _ _ _ _ 
4 | P _ _ _ _ P _ _ 
3 | _ _ _ _ _ N P _ 
2 | _ P P P P P _ P 
1 | R N B Q K B _ R 
-------------------
  | A B C D E F G H 

Turn of: white
Succesful move
a1a3
8 | R N B Q K B N R 
7 | P P P P _ _ P P 
6 | _ _ _ _ P _ _ _ 
5 | _ _ _ _ _ _ _ _ 
4 | P _ _ _ _ P _ _ 
3 | R _ _ _ _ N P _ 
2 | _ P P P P P _ P 
1 | _ N B Q K B _ R 
-------------------
  | A B C D E F G H 

Turn of: black
Succesful move
d8g5
8 | R N B _ K B N R 
7 | P P P P _ _ P P 
6 | _ _ _ _ P _ _ _ 
5 | _ _ _ _ _ _ Q _ 
4 | P _ _ _ _ P _ _ 
3 | R _ _ _ _ N P _ 
2 | _ P P P P P _ P 
1 | _ N B Q K B _ R 
-------------------
  | A B C D E F G H 

Turn of: white
Succesful move
f3g1
8 | R N B _ K B N R 
7 | P P P P _ _ P P 
6 | _ _ _ _ P _ _ _ 
5 | _ _ _ _ _ _ Q _ 
4 | P _ _ _ _ P _ _ 
3 | R _ _ _ _ _ P _ 
2 | _ P P P P P _ P 
1 | _ N B Q K B N R 
-------------------
  | A B C D E F G H 

Turn of: black
Succesful move
f8a3
8 | R N B _ K _ N R 
7 | P P P P _ _ P P 
6 | _ _ _ _ P _ _ _ 
5 | _ _ _ _ _ _ Q _ 
4 | P _ _ _ _ P _ _ 
3 | B _ _ _ _ _ P _ 
2 | _ P P P P P _ P 
1 | _ N B Q K B N R 
-------------------
  | A B C D E F G H 

Turn of: white
Succesful move
b1c3
8 | R N B _ K _ N R 
7 | P P P P _ _ P P 
6 | _ _ _ _ P _ _ _ 
5 | _ _ _ _ _ _ Q _ 
4 | P _ _ _ _ P _ _ 
3 | B _ N _ _ _ P _ 
2 | _ P P P P P _ P 
1 | _ _ B Q K B N R 
-------------------
  | A B C D E F G H 

Turn of: black
Succesful move
a3f8
8 | R N B _ K B N R 
7 | P P P P _ _ P P 
6 | _ _ _ _ P _ _ _ 
5 | _ _ _ _ _ _ Q _ 
4 | P _ _ _ _ P _ _ 
3 | _ _ N _ _ _ P _ 
2 | _ P P P P P _ P 
1 | _ _ B Q K B N R 
-------------------
  | A B C D E F G H 

We are playing as White
Move history:
g1f3
f7f5
g2g3
f5f4
a2a4
e7e6
a1a3
d8g5
f3g1
f8a3
b1c3
a3f8
8 | R N B _ K B N R 
7 | P P P P _ _ P P 
6 | _ _ _ _ P _ _ _ 
5 | _ _ _ _ _ _ Q _ 
4 | P _ _ _ _ P _ _ 
3 | _ _ N _ _ _ P _ 
2 | _ P P P P P _ P 
1 | _ _ B Q K B N R 
-------------------
  | A B C D E F G H 

It is white's turn to play.
AI's move: c3e4
Move written: c3e4
[32;1m[Game] [0mPlayer's error code: 0
[32;1m[Game] [0mChecking move validity...
[32;1m[Board] [0mInitializing board...
[32;1m[Board] [0mLoading history file `championship/lizzie-iii-caro_kaan_engine/history.csv`...
[32;1m[Board] [0mLoaded 12 move(s).
[32;1m[Board] [0mLoading move file `championship/lizzie-iii-caro_kaan_engine/move.csv`...
[32;1m[Board] [0mWhite player is playing c3 to e4.
[32;1m[Board] [0m
[32;1m[Board] [0m    a b c d e f g h 
[32;1m[Board] [0m  -------------------
[32;1m[Board] [0m8 ||[30;1mr[0m|[30;1mk[0m|[30;1mb[0m| |[30;1mK[0m|[30;1mb[0m|[30;1mk[0m|[30;1mr[0m|| 8
[32;1m[Board] [0m  -------------------
[32;1m[Board] [0m7 ||[30;1mp[0m|[30;1mp[0m|[30;1mp[0m|[30;1mp[0m| |[7;1m [0m|[30;1mp[0m|[30;1mp[0m|| 7
[32;1m[Board] [0m  -------------------
[32;1m[Board] [0m6 ||[7;1m [0m| |[7;1m [0m| |[30;1mp[0m| |[7;1m [0m| || 6
[32;1m[Board] [0m  -------------------
[32;1m[Board] [0m5 || |[7;1m [0m| |[7;1m [0m| |[7;1m [0m|[30;1mQ[0m|[7;1m [0m|| 5
[32;1m[Board] [0m  -------------------
[32;1m[Board] [0m4 ||[0;1mp[0m| |[7;1m [0m| |[0;1mk[0m|[30;1mp[0m|[7;1m [0m| || 4
[32;1m[Board] [0m  -------------------
[32;1m[Board] [0m3 || |[7;1m [0m| |[7;1m [0m| |[7;1m [0m|[0;1mp[0m|[7;1m [0m|| 3
[32;1m[Board] [0m  -------------------
[32;1m[Board] [0m2 ||[7;1m [0m|[0;1mp[0m|[0;1mp[0m|[0;1mp[0m|[0;1mp[0m|[0;1mp[0m|[7;1m [0m|[0;1mp[0m|| 2
[32;1m[Board] [0m  -------------------
[32;1m[Board] [0m1 || |[7;1m [0m|[0;1mb[0m|[0;1mQ[0m|[0;1mK[0m|[0;1mb[0m|[0;1mk[0m|[0;1mr[0m|| 1
[32;1m[Board] [0m  -------------------
[32;1m[Board] [0m    a b c d e f g h
[32;1m[Board] [0m
[32;1m[Referee] [0mThis is the turn of the Black player...
championship/lizzie-iii-caro_kaan_engine/history.csv
g1f3
f7f5
g2g3
f5f4
a2a4
e7e6
a1a3
d8g5
f3g1
f8a3
b1c3
a3f8
c3e4
[32;1m[Game] [0mPlayer's error code: 0
[32;1m[Game] [0mChecking move validity...
[32;1m[Board] [0mInitializing board...
[32;1m[Board] [0mLoading history file `championship/lizzie-iii-caro_kaan_engine/history.csv`...
[32;1m[Board] [0mLoaded 13 move(s).
[32;1m[Board] [0mLoading move file `championship/lizzie-iii-caro_kaan_engine/move.csv`...
[32;1m[Board] [0mBlack player is playing g5 to e5.
[32;1m[Board] [0m
[32;1m[Board] [0m    a b c d e f g h 
[32;1m[Board] [0m  -------------------
[32;1m[Board] [0m8 ||[30;1mr[0m|[30;1mk[0m|[30;1mb[0m| |[30;1mK[0m|[30;1mb[0m|[30;1mk[0m|[30;1mr[0m|| 8
[32;1m[Board] [0m  -------------------
[32;1m[Board] [0m7 ||[30;1mp[0m|[30;1mp[0m|[30;1mp[0m|[30;1mp[0m| |[7;1m [0m|[30;1mp[0m|[30;1mp[0m|| 7
[32;1m[Board] [0m  -------------------
[32;1m[Board] [0m6 ||[7;1m [0m| |[7;1m [0m| |[30;1mp[0m| |[7;1m [0m| || 6
[32;1m[Board] [0m  -------------------
[32;1m[Board] [0m5 || |[7;1m [0m| |[7;1m [0m|[30;1mQ[0m|[7;1m [0m| |[7;1m [0m|| 5
[32;1m[Board] [0m  -------------------
[32;1m[Board] [0m4 ||[0;1mp[0m| |[7;1m [0m| |[0;1mk[0m|[30;1mp[0m|[7;1m [0m| || 4
[32;1m[Board] [0m  -------------------
[32;1m[Board] [0m3 || |[7;1m [0m| |[7;1m [0m| |[7;1m [0m|[0;1mp[0m|[7;1m [0m|| 3
[32;1m[Board] [0m  -------------------
[32;1m[Board] [0m2 ||[7;1m [0m|[0;1mp[0m|[0;1mp[0m|[0;1mp[0m|[0;1mp[0m|[0;1mp[0m|[7;1m [0m|[0;1mp[0m|| 2
[32;1m[Board] [0m  -------------------
[32;1m[Board] [0m1 || |[7;1m [0m|[0;1mb[0m|[0;1mQ[0m|[0;1mK[0m|[0;1mb[0m|[0;1mk[0m|[0;1mr[0m|| 1
[32;1m[Board] [0m  -------------------
[32;1m[Board] [0m    a b c d e f g h
[32;1m[Board] [0m
[32;1m[Referee] [0mThis is the turn of the White player...
Input file: championship/lizzie-iii-caro_kaan_engine/history.csv
Output file: championship/lizzie-iii-caro_kaan_engine/move.csv
Turn of: white
Succesful move
g1f3
8 | R N B Q K B N R 
7 | P P P P P P P P 
6 | _ _ _ _ _ _ _ _ 
5 | _ _ _ _ _ _ _ _ 
4 | _ _ _ _ _ _ _ _ 
3 | _ _ _ _ _ N _ _ 
2 | P P P P P P P P 
1 | R N B Q K B _ R 
-------------------
  | A B C D E F G H 

Turn of: black
Succesful move
f7f5
8 | R N B Q K B N R 
7 | P P P P P _ P P 
6 | _ _ _ _ _ _ _ _ 
5 | _ _ _ _ _ P _ _ 
4 | _ _ _ _ _ _ _ _ 
3 | _ _ _ _ _ N _ _ 
2 | P P P P P P P P 
1 | R N B Q K B _ R 
-------------------
  | A B C D E F G H 

Turn of: white
Succesful move
g2g3
8 | R N B Q K B N R 
7 | P P P P P _ P P 
6 | _ _ _ _ _ _ _ _ 
5 | _ _ _ _ _ P _ _ 
4 | _ _ _ _ _ _ _ _ 
3 | _ _ _ _ _ N P _ 
2 | P P P P P P _ P 
1 | R N B Q K B _ R 
-------------------
  | A B C D E F G H 

Turn of: black
Succesful move
f5f4
8 | R N B Q K B N R 
7 | P P P P P _ P P 
6 | _ _ _ _ _ _ _ _ 
5 | _ _ _ _ _ _ _ _ 
4 | _ _ _ _ _ P _ _ 
3 | _ _ _ _ _ N P _ 
2 | P P P P P P _ P 
1 | R N B Q K B _ R 
-------------------
  | A B C D E F G H 

Turn of: white
Succesful move
a2a4
8 | R N B Q K B N R 
7 | P P P P P _ P P 
6 | _ _ _ _ _ _ _ _ 
5 | _ _ _ _ _ _ _ _ 
4 | P _ _ _ _ P _ _ 
3 | _ _ _ _ _ N P _ 
2 | _ P P P P P _ P 
1 | R N B Q K B _ R 
-------------------
  | A B C D E F G H 

Turn of: black
Succesful move
e7e6
8 | R N B Q K B N R 
7 | P P P P _ _ P P 
6 | _ _ _ _ P _ _ _ 
5 | _ _ _ _ _ _ _ _ 
4 | P _ _ _ _ P _ _ 
3 | _ _ _ _ _ N P _ 
2 | _ P P P P P _ P 
1 | R N B Q K B _ R 
-------------------
  | A B C D E F G H 

Turn of: white
Succesful move
a1a3
8 | R N B Q K B N R 
7 | P P P P _ _ P P 
6 | _ _ _ _ P _ _ _ 
5 | _ _ _ _ _ _ _ _ 
4 | P _ _ _ _ P _ _ 
3 | R _ _ _ _ N P _ 
2 | _ P P P P P _ P 
1 | _ N B Q K B _ R 
-------------------
  | A B C D E F G H 

Turn of: black
Succesful move
d8g5
8 | R N B _ K B N R 
7 | P P P P _ _ P P 
6 | _ _ _ _ P _ _ _ 
5 | _ _ _ _ _ _ Q _ 
4 | P _ _ _ _ P _ _ 
3 | R _ _ _ _ N P _ 
2 | _ P P P P P _ P 
1 | _ N B Q K B _ R 
-------------------
  | A B C D E F G H 

Turn of: white
Succesful move
f3g1
8 | R N B _ K B N R 
7 | P P P P _ _ P P 
6 | _ _ _ _ P _ _ _ 
5 | _ _ _ _ _ _ Q _ 
4 | P _ _ _ _ P _ _ 
3 | R _ _ _ _ _ P _ 
2 | _ P P P P P _ P 
1 | _ N B Q K B N R 
-------------------
  | A B C D E F G H 

Turn of: black
Succesful move
f8a3
8 | R N B _ K _ N R 
7 | P P P P _ _ P P 
6 | _ _ _ _ P _ _ _ 
5 | _ _ _ _ _ _ Q _ 
4 | P _ _ _ _ P _ _ 
3 | B _ _ _ _ _ P _ 
2 | _ P P P P P _ P 
1 | _ N B Q K B N R 
-------------------
  | A B C D E F G H 

Turn of: white
Succesful move
b1c3
8 | R N B _ K _ N R 
7 | P P P P _ _ P P 
6 | _ _ _ _ P _ _ _ 
5 | _ _ _ _ _ _ Q _ 
4 | P _ _ _ _ P _ _ 
3 | B _ N _ _ _ P _ 
2 | _ P P P P P _ P 
1 | _ _ B Q K B N R 
-------------------
  | A B C D E F G H 

Turn of: black
Succesful move
a3f8
8 | R N B _ K B N R 
7 | P P P P _ _ P P 
6 | _ _ _ _ P _ _ _ 
5 | _ _ _ _ _ _ Q _ 
4 | P _ _ _ _ P _ _ 
3 | _ _ N _ _ _ P _ 
2 | _ P P P P P _ P 
1 | _ _ B Q K B N R 
-------------------
  | A B C D E F G H 

Turn of: white
Succesful move
c3e4
8 | R N B _ K B N R 
7 | P P P P _ _ P P 
6 | _ _ _ _ P _ _ _ 
5 | _ _ _ _ _ _ Q _ 
4 | P _ _ _ N P _ _ 
3 | _ _ _ _ _ _ P _ 
2 | _ P P P P P _ P 
1 | _ _ B Q K B N R 
-------------------
  | A B C D E F G H 

Turn of: black
Succesful move
g5e5
8 | R N B _ K B N R 
7 | P P P P _ _ P P 
6 | _ _ _ _ P _ _ _ 
5 | _ _ _ _ Q _ _ _ 
4 | P _ _ _ N P _ _ 
3 | _ _ _ _ _ _ P _ 
2 | _ P P P P P _ P 
1 | _ _ B Q K B N R 
-------------------
  | A B C D E F G H 

We are playing as White
Move history:
g1f3
f7f5
g2g3
f5f4
a2a4
e7e6
a1a3
d8g5
f3g1
f8a3
b1c3
a3f8
c3e4
g5e5
8 | R N B _ K B N R 
7 | P P P P _ _ P P 
6 | _ _ _ _ P _ _ _ 
5 | _ _ _ _ Q _ _ _ 
4 | P _ _ _ N P _ _ 
3 | _ _ _ _ _ _ P _ 
2 | _ P P P P P _ P 
1 | _ _ B Q K B N R 
-------------------
  | A B C D E F G H 

It is white's turn to play.
AI's move: c2c3
Move written: c2c3
[32;1m[Game] [0mPlayer's error code: 0
[32;1m[Game] [0mChecking move validity...
[32;1m[Board] [0mInitializing board...
[32;1m[Board] [0mLoading history file `championship/lizzie-iii-caro_kaan_engine/history.csv`...
[32;1m[Board] [0mLoaded 14 move(s).
[32;1m[Board] [0mLoading move file `championship/lizzie-iii-caro_kaan_engine/move.csv`...
[32;1m[Board] [0mWhite player is playing c2 to c3.
[32;1m[Board] [0m
[32;1m[Board] [0m    a b c d e f g h 
[32;1m[Board] [0m  -------------------
[32;1m[Board] [0m8 ||[30;1mr[0m|[30;1mk[0m|[30;1mb[0m| |[30;1mK[0m|[30;1mb[0m|[30;1mk[0m|[30;1mr[0m|| 8
[32;1m[Board] [0m  -------------------
[32;1m[Board] [0m7 ||[30;1mp[0m|[30;1mp[0m|[30;1mp[0m|[30;1mp[0m| |[7;1m [0m|[30;1mp[0m|[30;1mp[0m|| 7
[32;1m[Board] [0m  -------------------
[32;1m[Board] [0m6 ||[7;1m [0m| |[7;1m [0m| |[30;1mp[0m| |[7;1m [0m| || 6
[32;1m[Board] [0m  -------------------
[32;1m[Board] [0m5 || |[7;1m [0m| |[7;1m [0m|[30;1mQ[0m|[7;1m [0m| |[7;1m [0m|| 5
[32;1m[Board] [0m  -------------------
[32;1m[Board] [0m4 ||[0;1mp[0m| |[7;1m [0m| |[0;1mk[0m|[30;1mp[0m|[7;1m [0m| || 4
[32;1m[Board] [0m  -------------------
[32;1m[Board] [0m3 || |[7;1m [0m|[0;1mp[0m|[7;1m [0m| |[7;1m [0m|[0;1mp[0m|[7;1m [0m|| 3
[32;1m[Board] [0m  -------------------
[32;1m[Board] [0m2 ||[7;1m [0m|[0;1mp[0m|[7;1m [0m|[0;1mp[0m|[0;1mp[0m|[0;1mp[0m|[7;1m [0m|[0;1mp[0m|| 2
[32;1m[Board] [0m  -------------------
[32;1m[Board] [0m1 || |[7;1m [0m|[0;1mb[0m|[0;1mQ[0m|[0;1mK[0m|[0;1mb[0m|[0;1mk[0m|[0;1mr[0m|| 1
[32;1m[Board] [0m  -------------------
[32;1m[Board] [0m    a b c d e f g h
[32;1m[Board] [0m
[32;1m[Referee] [0mThis is the turn of the Black player...
championship/lizzie-iii-caro_kaan_engine/history.csv
g1f3
f7f5
g2g3
f5f4
a2a4
e7e6
a1a3
d8g5
f3g1
f8a3
b1c3
a3f8
c3e4
g5e5
c2c3
[32;1m[Game] [0mPlayer's error code: 0
[32;1m[Game] [0mChecking move validity...
[32;1m[Board] [0mInitializing board...
[32;1m[Board] [0mLoading history file `championship/lizzie-iii-caro_kaan_engine/history.csv`...
[32;1m[Board] [0mLoaded 15 move(s).
[32;1m[Board] [0mLoading move file `championship/lizzie-iii-caro_kaan_engine/move.csv`...
[32;1m[Board] [0mBlack player is playing f4 to f3.
[32;1m[Board] [0m
[32;1m[Board] [0m    a b c d e f g h 
[32;1m[Board] [0m  -------------------
[32;1m[Board] [0m8 ||[30;1mr[0m|[30;1mk[0m|[30;1mb[0m| |[30;1mK[0m|[30;1mb[0m|[30;1mk[0m|[30;1mr[0m|| 8
[32;1m[Board] [0m  -------------------
[32;1m[Board] [0m7 ||[30;1mp[0m|[30;1mp[0m|[30;1mp[0m|[30;1mp[0m| |[7;1m [0m|[30;1mp[0m|[30;1mp[0m|| 7
[32;1m[Board] [0m  -------------------
[32;1m[Board] [0m6 ||[7;1m [0m| |[7;1m [0m| |[30;1mp[0m| |[7;1m [0m| || 6
[32;1m[Board] [0m  -------------------
[32;1m[Board] [0m5 || |[7;1m [0m| |[7;1m [0m|[30;1mQ[0m|[7;1m [0m| |[7;1m [0m|| 5
[32;1m[Board] [0m  -------------------
[32;1m[Board] [0m4 ||[0;1mp[0m| |[7;1m [0m| |[0;1mk[0m| |[7;1m [0m| || 4
[32;1m[Board] [0m  -------------------
[32;1m[Board] [0m3 || |[7;1m [0m|[0;1mp[0m|[7;1m [0m| |[30;1mp[0m|[0;1mp[0m|[7;1m [0m|| 3
[32;1m[Board] [0m  -------------------
[32;1m[Board] [0m2 ||[7;1m [0m|[0;1mp[0m|[7;1m [0m|[0;1mp[0m|[0;1mp[0m|[0;1mp[0m|[7;1m [0m|[0;1mp[0m|| 2
[32;1m[Board] [0m  -------------------
[32;1m[Board] [0m1 || |[7;1m [0m|[0;1mb[0m|[0;1mQ[0m|[0;1mK[0m|[0;1mb[0m|[0;1mk[0m|[0;1mr[0m|| 1
[32;1m[Board] [0m  -------------------
[32;1m[Board] [0m    a b c d e f g h
[32;1m[Board] [0m
[32;1m[Referee] [0mThis is the turn of the White player...
Input file: championship/lizzie-iii-caro_kaan_engine/history.csv
Output file: championship/lizzie-iii-caro_kaan_engine/move.csv
Turn of: white
Succesful move
g1f3
8 | R N B Q K B N R 
7 | P P P P P P P P 
6 | _ _ _ _ _ _ _ _ 
5 | _ _ _ _ _ _ _ _ 
4 | _ _ _ _ _ _ _ _ 
3 | _ _ _ _ _ N _ _ 
2 | P P P P P P P P 
1 | R N B Q K B _ R 
-------------------
  | A B C D E F G H 

Turn of: black
Succesful move
f7f5
8 | R N B Q K B N R 
7 | P P P P P _ P P 
6 | _ _ _ _ _ _ _ _ 
5 | _ _ _ _ _ P _ _ 
4 | _ _ _ _ _ _ _ _ 
3 | _ _ _ _ _ N _ _ 
2 | P P P P P P P P 
1 | R N B Q K B _ R 
-------------------
  | A B C D E F G H 

Turn of: white
Succesful move
g2g3
8 | R N B Q K B N R 
7 | P P P P P _ P P 
6 | _ _ _ _ _ _ _ _ 
5 | _ _ _ _ _ P _ _ 
4 | _ _ _ _ _ _ _ _ 
3 | _ _ _ _ _ N P _ 
2 | P P P P P P _ P 
1 | R N B Q K B _ R 
-------------------
  | A B C D E F G H 

Turn of: black
Succesful move
f5f4
8 | R N B Q K B N R 
7 | P P P P P _ P P 
6 | _ _ _ _ _ _ _ _ 
5 | _ _ _ _ _ _ _ _ 
4 | _ _ _ _ _ P _ _ 
3 | _ _ _ _ _ N P _ 
2 | P P P P P P _ P 
1 | R N B Q K B _ R 
-------------------
  | A B C D E F G H 

Turn of: white
Succesful move
a2a4
8 | R N B Q K B N R 
7 | P P P P P _ P P 
6 | _ _ _ _ _ _ _ _ 
5 | _ _ _ _ _ _ _ _ 
4 | P _ _ _ _ P _ _ 
3 | _ _ _ _ _ N P _ 
2 | _ P P P P P _ P 
1 | R N B Q K B _ R 
-------------------
  | A B C D E F G H 

Turn of: black
Succesful move
e7e6
8 | R N B Q K B N R 
7 | P P P P _ _ P P 
6 | _ _ _ _ P _ _ _ 
5 | _ _ _ _ _ _ _ _ 
4 | P _ _ _ _ P _ _ 
3 | _ _ _ _ _ N P _ 
2 | _ P P P P P _ P 
1 | R N B Q K B _ R 
-------------------
  | A B C D E F G H 

Turn of: white
Succesful move
a1a3
8 | R N B Q K B N R 
7 | P P P P _ _ P P 
6 | _ _ _ _ P _ _ _ 
5 | _ _ _ _ _ _ _ _ 
4 | P _ _ _ _ P _ _ 
3 | R _ _ _ _ N P _ 
2 | _ P P P P P _ P 
1 | _ N B Q K B _ R 
-------------------
  | A B C D E F G H 

Turn of: black
Succesful move
d8g5
8 | R N B _ K B N R 
7 | P P P P _ _ P P 
6 | _ _ _ _ P _ _ _ 
5 | _ _ _ _ _ _ Q _ 
4 | P _ _ _ _ P _ _ 
3 | R _ _ _ _ N P _ 
2 | _ P P P P P _ P 
1 | _ N B Q K B _ R 
-------------------
  | A B C D E F G H 

Turn of: white
Succesful move
f3g1
8 | R N B _ K B N R 
7 | P P P P _ _ P P 
6 | _ _ _ _ P _ _ _ 
5 | _ _ _ _ _ _ Q _ 
4 | P _ _ _ _ P _ _ 
3 | R _ _ _ _ _ P _ 
2 | _ P P P P P _ P 
1 | _ N B Q K B N R 
-------------------
  | A B C D E F G H 

Turn of: black
Succesful move
f8a3
8 | R N B _ K _ N R 
7 | P P P P _ _ P P 
6 | _ _ _ _ P _ _ _ 
5 | _ _ _ _ _ _ Q _ 
4 | P _ _ _ _ P _ _ 
3 | B _ _ _ _ _ P _ 
2 | _ P P P P P _ P 
1 | _ N B Q K B N R 
-------------------
  | A B C D E F G H 

Turn of: white
Succesful move
b1c3
8 | R N B _ K _ N R 
7 | P P P P _ _ P P 
6 | _ _ _ _ P _ _ _ 
5 | _ _ _ _ _ _ Q _ 
4 | P _ _ _ _ P _ _ 
3 | B _ N _ _ _ P _ 
2 | _ P P P P P _ P 
1 | _ _ B Q K B N R 
-------------------
  | A B C D E F G H 

Turn of: black
Succesful move
a3f8
8 | R N B _ K B N R 
7 | P P P P _ _ P P 
6 | _ _ _ _ P _ _ _ 
5 | _ _ _ _ _ _ Q _ 
4 | P _ _ _ _ P _ _ 
3 | _ _ N _ _ _ P _ 
2 | _ P P P P P _ P 
1 | _ _ B Q K B N R 
-------------------
  | A B C D E F G H 

Turn of: white
Succesful move
c3e4
8 | R N B _ K B N R 
7 | P P P P _ _ P P 
6 | _ _ _ _ P _ _ _ 
5 | _ _ _ _ _ _ Q _ 
4 | P _ _ _ N P _ _ 
3 | _ _ _ _ _ _ P _ 
2 | _ P P P P P _ P 
1 | _ _ B Q K B N R 
-------------------
  | A B C D E F G H 

Turn of: black
Succesful move
g5e5
8 | R N B _ K B N R 
7 | P P P P _ _ P P 
6 | _ _ _ _ P _ _ _ 
5 | _ _ _ _ Q _ _ _ 
4 | P _ _ _ N P _ _ 
3 | _ _ _ _ _ _ P _ 
2 | _ P P P P P _ P 
1 | _ _ B Q K B N R 
-------------------
  | A B C D E F G H 

Turn of: white
Succesful move
c2c3
8 | R N B _ K B N R 
7 | P P P P _ _ P P 
6 | _ _ _ _ P _ _ _ 
5 | _ _ _ _ Q _ _ _ 
4 | P _ _ _ N P _ _ 
3 | _ _ P _ _ _ P _ 
2 | _ P _ P P P _ P 
1 | _ _ B Q K B N R 
-------------------
  | A B C D E F G H 

Turn of: black
Succesful move
f4f3
8 | R N B _ K B N R 
7 | P P P P _ _ P P 
6 | _ _ _ _ P _ _ _ 
5 | _ _ _ _ Q _ _ _ 
4 | P _ _ _ N _ _ _ 
3 | _ _ P _ _ P P _ 
2 | _ P _ P P P _ P 
1 | _ _ B Q K B N R 
-------------------
  | A B C D E F G H 

We are playing as White
Move history:
g1f3
f7f5
g2g3
f5f4
a2a4
e7e6
a1a3
d8g5
f3g1
f8a3
b1c3
a3f8
c3e4
g5e5
c2c3
f4f3
8 | R N B _ K B N R 
7 | P P P P _ _ P P 
6 | _ _ _ _ P _ _ _ 
5 | _ _ _ _ Q _ _ _ 
4 | P _ _ _ N _ _ _ 
3 | _ _ P _ _ P P _ 
2 | _ P _ P P P _ P 
1 | _ _ B Q K B N R 
-------------------
  | A B C D E F G H 

It is white's turn to play.
AI's move: g1h3
Move written: g1h3
[32;1m[Game] [0mPlayer's error code: 0
[32;1m[Game] [0mChecking move validity...
[32;1m[Board] [0mInitializing board...
[32;1m[Board] [0mLoading history file `championship/lizzie-iii-caro_kaan_engine/history.csv`...
[32;1m[Board] [0mLoaded 16 move(s).
[32;1m[Board] [0mLoading move file `championship/lizzie-iii-caro_kaan_engine/move.csv`...
[32;1m[Board] [0mWhite player is playing g1 to h3.
[32;1m[Board] [0m
[32;1m[Board] [0m    a b c d e f g h 
[32;1m[Board] [0m  -------------------
[32;1m[Board] [0m8 ||[30;1mr[0m|[30;1mk[0m|[30;1mb[0m| |[30;1mK[0m|[30;1mb[0m|[30;1mk[0m|[30;1mr[0m|| 8
[32;1m[Board] [0m  -------------------
[32;1m[Board] [0m7 ||[30;1mp[0m|[30;1mp[0m|[30;1mp[0m|[30;1mp[0m| |[7;1m [0m|[30;1mp[0m|[30;1mp[0m|| 7
[32;1m[Board] [0m  -------------------
[32;1m[Board] [0m6 ||[7;1m [0m| |[7;1m [0m| |[30;1mp[0m| |[7;1m [0m| || 6
[32;1m[Board] [0m  -------------------
[32;1m[Board] [0m5 || |[7;1m [0m| |[7;1m [0m|[30;1mQ[0m|[7;1m [0m| |[7;1m [0m|| 5
[32;1m[Board] [0m  -------------------
[32;1m[Board] [0m4 ||[0;1mp[0m| |[7;1m [0m| |[0;1mk[0m| |[7;1m [0m| || 4
[32;1m[Board] [0m  -------------------
[32;1m[Board] [0m3 || |[7;1m [0m|[0;1mp[0m|[7;1m [0m| |[30;1mp[0m|[0;1mp[0m|[0;1mk[0m|| 3
[32;1m[Board] [0m  -------------------
[32;1m[Board] [0m2 ||[7;1m [0m|[0;1mp[0m|[7;1m [0m|[0;1mp[0m|[0;1mp[0m|[0;1mp[0m|[7;1m [0m|[0;1mp[0m|| 2
[32;1m[Board] [0m  -------------------
[32;1m[Board] [0m1 || |[7;1m [0m|[0;1mb[0m|[0;1mQ[0m|[0;1mK[0m|[0;1mb[0m| |[0;1mr[0m|| 1
[32;1m[Board] [0m  -------------------
[32;1m[Board] [0m    a b c d e f g h
[32;1m[Board] [0m
[32;1m[Referee] [0mThis is the turn of the Black player...
championship/lizzie-iii-caro_kaan_engine/history.csv
g1f3
f7f5
g2g3
f5f4
a2a4
e7e6
a1a3
d8g5
f3g1
f8a3
b1c3
a3f8
c3e4
g5e5
c2c3
f4f3
g1h3
[32;1m[Game] [0mPlayer's error code: 0
[32;1m[Game] [0mChecking move validity...
[32;1m[Board] [0mInitializing board...
[32;1m[Board] [0mLoading history file `championship/lizzie-iii-caro_kaan_engine/history.csv`...
[32;1m[Board] [0mLoaded 17 move(s).
[32;1m[Board] [0mLoading move file `championship/lizzie-iii-caro_kaan_engine/move.csv`...
[32;1m[Board] [0mBlack player is playing c7 to c5.
[32;1m[Board] [0m
[32;1m[Board] [0m    a b c d e f g h 
[32;1m[Board] [0m  -------------------
[32;1m[Board] [0m8 ||[30;1mr[0m|[30;1mk[0m|[30;1mb[0m| |[30;1mK[0m|[30;1mb[0m|[30;1mk[0m|[30;1mr[0m|| 8
[32;1m[Board] [0m  -------------------
[32;1m[Board] [0m7 ||[30;1mp[0m|[30;1mp[0m| |[30;1mp[0m| |[7;1m [0m|[30;1mp[0m|[30;1mp[0m|| 7
[32;1m[Board] [0m  -------------------
[32;1m[Board] [0m6 ||[7;1m [0m| |[7;1m [0m| |[30;1mp[0m| |[7;1m [0m| || 6
[32;1m[Board] [0m  -------------------
[32;1m[Board] [0m5 || |[7;1m [0m|[30;1mp[0m|[7;1m [0m|[30;1mQ[0m|[7;1m [0m| |[7;1m [0m|| 5
[32;1m[Board] [0m  -------------------
[32;1m[Board] [0m4 ||[0;1mp[0m| |[7;1m [0m| |[0;1mk[0m| |[7;1m [0m| || 4
[32;1m[Board] [0m  -------------------
[32;1m[Board] [0m3 || |[7;1m [0m|[0;1mp[0m|[7;1m [0m| |[30;1mp[0m|[0;1mp[0m|[0;1mk[0m|| 3
[32;1m[Board] [0m  -------------------
[32;1m[Board] [0m2 ||[7;1m [0m|[0;1mp[0m|[7;1m [0m|[0;1mp[0m|[0;1mp[0m|[0;1mp[0m|[7;1m [0m|[0;1mp[0m|| 2
[32;1m[Board] [0m  -------------------
[32;1m[Board] [0m1 || |[7;1m [0m|[0;1mb[0m|[0;1mQ[0m|[0;1mK[0m|[0;1mb[0m| |[0;1mr[0m|| 1
[32;1m[Board] [0m  -------------------
[32;1m[Board] [0m    a b c d e f g h
[32;1m[Board] [0m
[32;1m[Referee] [0mThis is the turn of the White player...
Input file: championship/lizzie-iii-caro_kaan_engine/history.csv
Output file: championship/lizzie-iii-caro_kaan_engine/move.csv
Turn of: white
Succesful move
g1f3
8 | R N B Q K B N R 
7 | P P P P P P P P 
6 | _ _ _ _ _ _ _ _ 
5 | _ _ _ _ _ _ _ _ 
4 | _ _ _ _ _ _ _ _ 
3 | _ _ _ _ _ N _ _ 
2 | P P P P P P P P 
1 | R N B Q K B _ R 
-------------------
  | A B C D E F G H 

Turn of: black
Succesful move
f7f5
8 | R N B Q K B N R 
7 | P P P P P _ P P 
6 | _ _ _ _ _ _ _ _ 
5 | _ _ _ _ _ P _ _ 
4 | _ _ _ _ _ _ _ _ 
3 | _ _ _ _ _ N _ _ 
2 | P P P P P P P P 
1 | R N B Q K B _ R 
-------------------
  | A B C D E F G H 

Turn of: white
Succesful move
g2g3
8 | R N B Q K B N R 
7 | P P P P P _ P P 
6 | _ _ _ _ _ _ _ _ 
5 | _ _ _ _ _ P _ _ 
4 | _ _ _ _ _ _ _ _ 
3 | _ _ _ _ _ N P _ 
2 | P P P P P P _ P 
1 | R N B Q K B _ R 
-------------------
  | A B C D E F G H 

Turn of: black
Succesful move
f5f4
8 | R N B Q K B N R 
7 | P P P P P _ P P 
6 | _ _ _ _ _ _ _ _ 
5 | _ _ _ _ _ _ _ _ 
4 | _ _ _ _ _ P _ _ 
3 | _ _ _ _ _ N P _ 
2 | P P P P P P _ P 
1 | R N B Q K B _ R 
-------------------
  | A B C D E F G H 

Turn of: white
Succesful move
a2a4
8 | R N B Q K B N R 
7 | P P P P P _ P P 
6 | _ _ _ _ _ _ _ _ 
5 | _ _ _ _ _ _ _ _ 
4 | P _ _ _ _ P _ _ 
3 | _ _ _ _ _ N P _ 
2 | _ P P P P P _ P 
1 | R N B Q K B _ R 
-------------------
  | A B C D E F G H 

Turn of: black
Succesful move
e7e6
8 | R N B Q K B N R 
7 | P P P P _ _ P P 
6 | _ _ _ _ P _ _ _ 
5 | _ _ _ _ _ _ _ _ 
4 | P _ _ _ _ P _ _ 
3 | _ _ _ _ _ N P _ 
2 | _ P P P P P _ P 
1 | R N B Q K B _ R 
-------------------
  | A B C D E F G H 

Turn of: white
Succesful move
a1a3
8 | R N B Q K B N R 
7 | P P P P _ _ P P 
6 | _ _ _ _ P _ _ _ 
5 | _ _ _ _ _ _ _ _ 
4 | P _ _ _ _ P _ _ 
3 | R _ _ _ _ N P _ 
2 | _ P P P P P _ P 
1 | _ N B Q K B _ R 
-------------------
  | A B C D E F G H 

Turn of: black
Succesful move
d8g5
8 | R N B _ K B N R 
7 | P P P P _ _ P P 
6 | _ _ _ _ P _ _ _ 
5 | _ _ _ _ _ _ Q _ 
4 | P _ _ _ _ P _ _ 
3 | R _ _ _ _ N P _ 
2 | _ P P P P P _ P 
1 | _ N B Q K B _ R 
-------------------
  | A B C D E F G H 

Turn of: white
Succesful move
f3g1
8 | R N B _ K B N R 
7 | P P P P _ _ P P 
6 | _ _ _ _ P _ _ _ 
5 | _ _ _ _ _ _ Q _ 
4 | P _ _ _ _ P _ _ 
3 | R _ _ _ _ _ P _ 
2 | _ P P P P P _ P 
1 | _ N B Q K B N R 
-------------------
  | A B C D E F G H 

Turn of: black
Succesful move
f8a3
8 | R N B _ K _ N R 
7 | P P P P _ _ P P 
6 | _ _ _ _ P _ _ _ 
5 | _ _ _ _ _ _ Q _ 
4 | P _ _ _ _ P _ _ 
3 | B _ _ _ _ _ P _ 
2 | _ P P P P P _ P 
1 | _ N B Q K B N R 
-------------------
  | A B C D E F G H 

Turn of: white
Succesful move
b1c3
8 | R N B _ K _ N R 
7 | P P P P _ _ P P 
6 | _ _ _ _ P _ _ _ 
5 | _ _ _ _ _ _ Q _ 
4 | P _ _ _ _ P _ _ 
3 | B _ N _ _ _ P _ 
2 | _ P P P P P _ P 
1 | _ _ B Q K B N R 
-------------------
  | A B C D E F G H 

Turn of: black
Succesful move
a3f8
8 | R N B _ K B N R 
7 | P P P P _ _ P P 
6 | _ _ _ _ P _ _ _ 
5 | _ _ _ _ _ _ Q _ 
4 | P _ _ _ _ P _ _ 
3 | _ _ N _ _ _ P _ 
2 | _ P P P P P _ P 
1 | _ _ B Q K B N R 
-------------------
  | A B C D E F G H 

Turn of: white
Succesful move
c3e4
8 | R N B _ K B N R 
7 | P P P P _ _ P P 
6 | _ _ _ _ P _ _ _ 
5 | _ _ _ _ _ _ Q _ 
4 | P _ _ _ N P _ _ 
3 | _ _ _ _ _ _ P _ 
2 | _ P P P P P _ P 
1 | _ _ B Q K B N R 
-------------------
  | A B C D E F G H 

Turn of: black
Succesful move
g5e5
8 | R N B _ K B N R 
7 | P P P P _ _ P P 
6 | _ _ _ _ P _ _ _ 
5 | _ _ _ _ Q _ _ _ 
4 | P _ _ _ N P _ _ 
3 | _ _ _ _ _ _ P _ 
2 | _ P P P P P _ P 
1 | _ _ B Q K B N R 
-------------------
  | A B C D E F G H 

Turn of: white
Succesful move
c2c3
8 | R N B _ K B N R 
7 | P P P P _ _ P P 
6 | _ _ _ _ P _ _ _ 
5 | _ _ _ _ Q _ _ _ 
4 | P _ _ _ N P _ _ 
3 | _ _ P _ _ _ P _ 
2 | _ P _ P P P _ P 
1 | _ _ B Q K B N R 
-------------------
  | A B C D E F G H 

Turn of: black
Succesful move
f4f3
8 | R N B _ K B N R 
7 | P P P P _ _ P P 
6 | _ _ _ _ P _ _ _ 
5 | _ _ _ _ Q _ _ _ 
4 | P _ _ _ N _ _ _ 
3 | _ _ P _ _ P P _ 
2 | _ P _ P P P _ P 
1 | _ _ B Q K B N R 
-------------------
  | A B C D E F G H 

Turn of: white
Succesful move
g1h3
8 | R N B _ K B N R 
7 | P P P P _ _ P P 
6 | _ _ _ _ P _ _ _ 
5 | _ _ _ _ Q _ _ _ 
4 | P _ _ _ N _ _ _ 
3 | _ _ P _ _ P P N 
2 | _ P _ P P P _ P 
1 | _ _ B Q K B _ R 
-------------------
  | A B C D E F G H 

Turn of: black
Succesful move
c7c5
8 | R N B _ K B N R 
7 | P P _ P _ _ P P 
6 | _ _ _ _ P _ _ _ 
5 | _ _ P _ Q _ _ _ 
4 | P _ _ _ N _ _ _ 
3 | _ _ P _ _ P P N 
2 | _ P _ P P P _ P 
1 | _ _ B Q K B _ R 
-------------------
  | A B C D E F G H 

We are playing as White
Move history:
g1f3
f7f5
g2g3
f5f4
a2a4
e7e6
a1a3
d8g5
f3g1
f8a3
b1c3
a3f8
c3e4
g5e5
c2c3
f4f3
g1h3
c7c5
8 | R N B _ K B N R 
7 | P P _ P _ _ P P 
6 | _ _ _ _ P _ _ _ 
5 | _ _ P _ Q _ _ _ 
4 | P _ _ _ N _ _ _ 
3 | _ _ P _ _ P P N 
2 | _ P _ P P P _ P 
1 | _ _ B Q K B _ R 
-------------------
  | A B C D E F G H 

It is white's turn to play.
AI's move: e4c5
Move written: e4c5
[32;1m[Game] [0mPlayer's error code: 0
[32;1m[Game] [0mChecking move validity...
[32;1m[Board] [0mInitializing board...
[32;1m[Board] [0mLoading history file `championship/lizzie-iii-caro_kaan_engine/history.csv`...
[32;1m[Board] [0mLoaded 18 move(s).
[32;1m[Board] [0mLoading move file `championship/lizzie-iii-caro_kaan_engine/move.csv`...
[32;1m[Board] [0mWhite player is playing e4 to c5.
[32;1m[Board] [0m[5;1mWhite Knight is taking Black Pawn.[0m
[32;1m[Board] [0m
[32;1m[Board] [0m    a b c d e f g h 
[32;1m[Board] [0m  -------------------
[32;1m[Board] [0m8 ||[30;1mr[0m|[30;1mk[0m|[30;1mb[0m| |[30;1mK[0m|[30;1mb[0m|[30;1mk[0m|[30;1mr[0m|| 8
[32;1m[Board] [0m  -------------------
[32;1m[Board] [0m7 ||[30;1mp[0m|[30;1mp[0m| |[30;1mp[0m| |[7;1m [0m|[30;1mp[0m|[30;1mp[0m|| 7
[32;1m[Board] [0m  -------------------
[32;1m[Board] [0m6 ||[7;1m [0m| |[7;1m [0m| |[30;1mp[0m| |[7;1m [0m| || 6
[32;1m[Board] [0m  -------------------
[32;1m[Board] [0m5 || |[7;1m [0m|[0;1mk[0m|[7;1m [0m|[30;1mQ[0m|[7;1m [0m| |[7;1m [0m|| 5
[32;1m[Board] [0m  -------------------
[32;1m[Board] [0m4 ||[0;1mp[0m| |[7;1m [0m| |[7;1m [0m| |[7;1m [0m| || 4
[32;1m[Board] [0m  -------------------
[32;1m[Board] [0m3 || |[7;1m [0m|[0;1mp[0m|[7;1m [0m| |[30;1mp[0m|[0;1mp[0m|[0;1mk[0m|| 3
[32;1m[Board] [0m  -------------------
[32;1m[Board] [0m2 ||[7;1m [0m|[0;1mp[0m|[7;1m [0m|[0;1mp[0m|[0;1mp[0m|[0;1mp[0m|[7;1m [0m|[0;1mp[0m|| 2
[32;1m[Board] [0m  -------------------
[32;1m[Board] [0m1 || |[7;1m [0m|[0;1mb[0m|[0;1mQ[0m|[0;1mK[0m|[0;1mb[0m| |[0;1mr[0m|| 1
[32;1m[Board] [0m  -------------------
[32;1m[Board] [0m    a b c d e f g h
[32;1m[Board] [0m
[32;1m[Referee] [0mThis is the turn of the Black player...
championship/lizzie-iii-caro_kaan_engine/history.csv
g1f3
f7f5
g2g3
f5f4
a2a4
e7e6
a1a3
d8g5
f3g1
f8a3
b1c3
a3f8
c3e4
g5e5
c2c3
f4f3
g1h3
c7c5
e4c5
[32;1m[Game] [0mPlayer's error code: 0
[32;1m[Game] [0mChecking move validity...
[32;1m[Board] [0mInitializing board...
[32;1m[Board] [0mLoading history file `championship/lizzie-iii-caro_kaan_engine/history.csv`...
[32;1m[Board] [0mLoaded 19 move(s).
[32;1m[Board] [0mLoading move file `championship/lizzie-iii-caro_kaan_engine/move.csv`...
[32;1m[Board] [0mBlack player is playing f8 to d6.
[32;1m[Board] [0m
[32;1m[Board] [0m    a b c d e f g h 
[32;1m[Board] [0m  -------------------
[32;1m[Board] [0m8 ||[30;1mr[0m|[30;1mk[0m|[30;1mb[0m| |[30;1mK[0m| |[30;1mk[0m|[30;1mr[0m|| 8
[32;1m[Board] [0m  -------------------
[32;1m[Board] [0m7 ||[30;1mp[0m|[30;1mp[0m| |[30;1mp[0m| |[7;1m [0m|[30;1mp[0m|[30;1mp[0m|| 7
[32;1m[Board] [0m  -------------------
[32;1m[Board] [0m6 ||[7;1m [0m| |[7;1m [0m|[30;1mb[0m|[30;1mp[0m| |[7;1m [0m| || 6
[32;1m[Board] [0m  -------------------
[32;1m[Board] [0m5 || |[7;1m [0m|[0;1mk[0m|[7;1m [0m|[30;1mQ[0m|[7;1m [0m| |[7;1m [0m|| 5
[32;1m[Board] [0m  -------------------
[32;1m[Board] [0m4 ||[0;1mp[0m| |[7;1m [0m| |[7;1m [0m| |[7;1m [0m| || 4
[32;1m[Board] [0m  -------------------
[32;1m[Board] [0m3 || |[7;1m [0m|[0;1mp[0m|[7;1m [0m| |[30;1mp[0m|[0;1mp[0m|[0;1mk[0m|| 3
[32;1m[Board] [0m  -------------------
[32;1m[Board] [0m2 ||[7;1m [0m|[0;1mp[0m|[7;1m [0m|[0;1mp[0m|[0;1mp[0m|[0;1mp[0m|[7;1m [0m|[0;1mp[0m|| 2
[32;1m[Board] [0m  -------------------
[32;1m[Board] [0m1 || |[7;1m [0m|[0;1mb[0m|[0;1mQ[0m|[0;1mK[0m|[0;1mb[0m| |[0;1mr[0m|| 1
[32;1m[Board] [0m  -------------------
[32;1m[Board] [0m    a b c d e f g h
[32;1m[Board] [0m
[32;1m[Referee] [0mThis is the turn of the White player...
Input file: championship/lizzie-iii-caro_kaan_engine/history.csv
Output file: championship/lizzie-iii-caro_kaan_engine/move.csv
Turn of: white
Succesful move
g1f3
8 | R N B Q K B N R 
7 | P P P P P P P P 
6 | _ _ _ _ _ _ _ _ 
5 | _ _ _ _ _ _ _ _ 
4 | _ _ _ _ _ _ _ _ 
3 | _ _ _ _ _ N _ _ 
2 | P P P P P P P P 
1 | R N B Q K B _ R 
-------------------
  | A B C D E F G H 

Turn of: black
Succesful move
f7f5
8 | R N B Q K B N R 
7 | P P P P P _ P P 
6 | _ _ _ _ _ _ _ _ 
5 | _ _ _ _ _ P _ _ 
4 | _ _ _ _ _ _ _ _ 
3 | _ _ _ _ _ N _ _ 
2 | P P P P P P P P 
1 | R N B Q K B _ R 
-------------------
  | A B C D E F G H 

Turn of: white
Succesful move
g2g3
8 | R N B Q K B N R 
7 | P P P P P _ P P 
6 | _ _ _ _ _ _ _ _ 
5 | _ _ _ _ _ P _ _ 
4 | _ _ _ _ _ _ _ _ 
3 | _ _ _ _ _ N P _ 
2 | P P P P P P _ P 
1 | R N B Q K B _ R 
-------------------
  | A B C D E F G H 

Turn of: black
Succesful move
f5f4
8 | R N B Q K B N R 
7 | P P P P P _ P P 
6 | _ _ _ _ _ _ _ _ 
5 | _ _ _ _ _ _ _ _ 
4 | _ _ _ _ _ P _ _ 
3 | _ _ _ _ _ N P _ 
2 | P P P P P P _ P 
1 | R N B Q K B _ R 
-------------------
  | A B C D E F G H 

Turn of: white
Succesful move
a2a4
8 | R N B Q K B N R 
7 | P P P P P _ P P 
6 | _ _ _ _ _ _ _ _ 
5 | _ _ _ _ _ _ _ _ 
4 | P _ _ _ _ P _ _ 
3 | _ _ _ _ _ N P _ 
2 | _ P P P P P _ P 
1 | R N B Q K B _ R 
-------------------
  | A B C D E F G H 

Turn of: black
Succesful move
e7e6
8 | R N B Q K B N R 
7 | P P P P _ _ P P 
6 | _ _ _ _ P _ _ _ 
5 | _ _ _ _ _ _ _ _ 
4 | P _ _ _ _ P _ _ 
3 | _ _ _ _ _ N P _ 
2 | _ P P P P P _ P 
1 | R N B Q K B _ R 
-------------------
  | A B C D E F G H 

Turn of: white
Succesful move
a1a3
8 | R N B Q K B N R 
7 | P P P P _ _ P P 
6 | _ _ _ _ P _ _ _ 
5 | _ _ _ _ _ _ _ _ 
4 | P _ _ _ _ P _ _ 
3 | R _ _ _ _ N P _ 
2 | _ P P P P P _ P 
1 | _ N B Q K B _ R 
-------------------
  | A B C D E F G H 

Turn of: black
Succesful move
d8g5
8 | R N B _ K B N R 
7 | P P P P _ _ P P 
6 | _ _ _ _ P _ _ _ 
5 | _ _ _ _ _ _ Q _ 
4 | P _ _ _ _ P _ _ 
3 | R _ _ _ _ N P _ 
2 | _ P P P P P _ P 
1 | _ N B Q K B _ R 
-------------------
  | A B C D E F G H 

Turn of: white
Succesful move
f3g1
8 | R N B _ K B N R 
7 | P P P P _ _ P P 
6 | _ _ _ _ P _ _ _ 
5 | _ _ _ _ _ _ Q _ 
4 | P _ _ _ _ P _ _ 
3 | R _ _ _ _ _ P _ 
2 | _ P P P P P _ P 
1 | _ N B Q K B N R 
-------------------
  | A B C D E F G H 

Turn of: black
Succesful move
f8a3
8 | R N B _ K _ N R 
7 | P P P P _ _ P P 
6 | _ _ _ _ P _ _ _ 
5 | _ _ _ _ _ _ Q _ 
4 | P _ _ _ _ P _ _ 
3 | B _ _ _ _ _ P _ 
2 | _ P P P P P _ P 
1 | _ N B Q K B N R 
-------------------
  | A B C D E F G H 

Turn of: white
Succesful move
b1c3
8 | R N B _ K _ N R 
7 | P P P P _ _ P P 
6 | _ _ _ _ P _ _ _ 
5 | _ _ _ _ _ _ Q _ 
4 | P _ _ _ _ P _ _ 
3 | B _ N _ _ _ P _ 
2 | _ P P P P P _ P 
1 | _ _ B Q K B N R 
-------------------
  | A B C D E F G H 

Turn of: black
Succesful move
a3f8
8 | R N B _ K B N R 
7 | P P P P _ _ P P 
6 | _ _ _ _ P _ _ _ 
5 | _ _ _ _ _ _ Q _ 
4 | P _ _ _ _ P _ _ 
3 | _ _ N _ _ _ P _ 
2 | _ P P P P P _ P 
1 | _ _ B Q K B N R 
-------------------
  | A B C D E F G H 

Turn of: white
Succesful move
c3e4
8 | R N B _ K B N R 
7 | P P P P _ _ P P 
6 | _ _ _ _ P _ _ _ 
5 | _ _ _ _ _ _ Q _ 
4 | P _ _ _ N P _ _ 
3 | _ _ _ _ _ _ P _ 
2 | _ P P P P P _ P 
1 | _ _ B Q K B N R 
-------------------
  | A B C D E F G H 

Turn of: black
Succesful move
g5e5
8 | R N B _ K B N R 
7 | P P P P _ _ P P 
6 | _ _ _ _ P _ _ _ 
5 | _ _ _ _ Q _ _ _ 
4 | P _ _ _ N P _ _ 
3 | _ _ _ _ _ _ P _ 
2 | _ P P P P P _ P 
1 | _ _ B Q K B N R 
-------------------
  | A B C D E F G H 

Turn of: white
Succesful move
c2c3
8 | R N B _ K B N R 
7 | P P P P _ _ P P 
6 | _ _ _ _ P _ _ _ 
5 | _ _ _ _ Q _ _ _ 
4 | P _ _ _ N P _ _ 
3 | _ _ P _ _ _ P _ 
2 | _ P _ P P P _ P 
1 | _ _ B Q K B N R 
-------------------
  | A B C D E F G H 

Turn of: black
Succesful move
f4f3
8 | R N B _ K B N R 
7 | P P P P _ _ P P 
6 | _ _ _ _ P _ _ _ 
5 | _ _ _ _ Q _ _ _ 
4 | P _ _ _ N _ _ _ 
3 | _ _ P _ _ P P _ 
2 | _ P _ P P P _ P 
1 | _ _ B Q K B N R 
-------------------
  | A B C D E F G H 

Turn of: white
Succesful move
g1h3
8 | R N B _ K B N R 
7 | P P P P _ _ P P 
6 | _ _ _ _ P _ _ _ 
5 | _ _ _ _ Q _ _ _ 
4 | P _ _ _ N _ _ _ 
3 | _ _ P _ _ P P N 
2 | _ P _ P P P _ P 
1 | _ _ B Q K B _ R 
-------------------
  | A B C D E F G H 

Turn of: black
Succesful move
c7c5
8 | R N B _ K B N R 
7 | P P _ P _ _ P P 
6 | _ _ _ _ P _ _ _ 
5 | _ _ P _ Q _ _ _ 
4 | P _ _ _ N _ _ _ 
3 | _ _ P _ _ P P N 
2 | _ P _ P P P _ P 
1 | _ _ B Q K B _ R 
-------------------
  | A B C D E F G H 

Turn of: white
Succesful move
e4c5
8 | R N B _ K B N R 
7 | P P _ P _ _ P P 
6 | _ _ _ _ P _ _ _ 
5 | _ _ N _ Q _ _ _ 
4 | P _ _ _ _ _ _ _ 
3 | _ _ P _ _ P P N 
2 | _ P _ P P P _ P 
1 | _ _ B Q K B _ R 
-------------------
  | A B C D E F G H 

Turn of: black
Succesful move
f8d6
8 | R N B _ K _ N R 
7 | P P _ P _ _ P P 
6 | _ _ _ B P _ _ _ 
5 | _ _ N _ Q _ _ _ 
4 | P _ _ _ _ _ _ _ 
3 | _ _ P _ _ P P N 
2 | _ P _ P P P _ P 
1 | _ _ B Q K B _ R 
-------------------
  | A B C D E F G H 

We are playing as White
Move history:
g1f3
f7f5
g2g3
f5f4
a2a4
e7e6
a1a3
d8g5
f3g1
f8a3
b1c3
a3f8
c3e4
g5e5
c2c3
f4f3
g1h3
c7c5
e4c5
f8d6
8 | R N B _ K _ N R 
7 | P P _ P _ _ P P 
6 | _ _ _ B P _ _ _ 
5 | _ _ N _ Q _ _ _ 
4 | P _ _ _ _ _ _ _ 
3 | _ _ P _ _ P P N 
2 | _ P _ P P P _ P 
1 | _ _ B Q K B _ R 
-------------------
  | A B C D E F G H 

It is white's turn to play.
AI's move: d1b3
Move written: d1b3
[32;1m[Game] [0mPlayer's error code: 0
[32;1m[Game] [0mChecking move validity...
[32;1m[Board] [0mInitializing board...
[32;1m[Board] [0mLoading history file `championship/lizzie-iii-caro_kaan_engine/history.csv`...
[32;1m[Board] [0mLoaded 20 move(s).
[32;1m[Board] [0mLoading move file `championship/lizzie-iii-caro_kaan_engine/move.csv`...
[32;1m[Board] [0mWhite player is playing d1 to b3.
[32;1m[Board] [0m
[32;1m[Board] [0m    a b c d e f g h 
[32;1m[Board] [0m  -------------------
[32;1m[Board] [0m8 ||[30;1mr[0m|[30;1mk[0m|[30;1mb[0m| |[30;1mK[0m| |[30;1mk[0m|[30;1mr[0m|| 8
[32;1m[Board] [0m  -------------------
[32;1m[Board] [0m7 ||[30;1mp[0m|[30;1mp[0m| |[30;1mp[0m| |[7;1m [0m|[30;1mp[0m|[30;1mp[0m|| 7
[32;1m[Board] [0m  -------------------
[32;1m[Board] [0m6 ||[7;1m [0m| |[7;1m [0m|[30;1mb[0m|[30;1mp[0m| |[7;1m [0m| || 6
[32;1m[Board] [0m  -------------------
[32;1m[Board] [0m5 || |[7;1m [0m|[0;1mk[0m|[7;1m [0m|[30;1mQ[0m|[7;1m [0m| |[7;1m [0m|| 5
[32;1m[Board] [0m  -------------------
[32;1m[Board] [0m4 ||[0;1mp[0m| |[7;1m [0m| |[7;1m [0m| |[7;1m [0m| || 4
[32;1m[Board] [0m  -------------------
[32;1m[Board] [0m3 || |[0;1mQ[0m|[0;1mp[0m|[7;1m [0m| |[30;1mp[0m|[0;1mp[0m|[0;1mk[0m|| 3
[32;1m[Board] [0m  -------------------
[32;1m[Board] [0m2 ||[7;1m [0m|[0;1mp[0m|[7;1m [0m|[0;1mp[0m|[0;1mp[0m|[0;1mp[0m|[7;1m [0m|[0;1mp[0m|| 2
[32;1m[Board] [0m  -------------------
[32;1m[Board] [0m1 || |[7;1m [0m|[0;1mb[0m|[7;1m [0m|[0;1mK[0m|[0;1mb[0m| |[0;1mr[0m|| 1
[32;1m[Board] [0m  -------------------
[32;1m[Board] [0m    a b c d e f g h
[32;1m[Board] [0m
[32;1m[Referee] [0mThis is the turn of the Black player...
championship/lizzie-iii-caro_kaan_engine/history.csv
g1f3
f7f5
g2g3
f5f4
a2a4
e7e6
a1a3
d8g5
f3g1
f8a3
b1c3
a3f8
c3e4
g5e5
c2c3
f4f3
g1h3
c7c5
e4c5
f8d6
d1b3
[32;1m[Game] [0mPlayer's error code: 0
[32;1m[Game] [0mChecking move validity...
[32;1m[Board] [0mInitializing board...
[32;1m[Board] [0mLoading history file `championship/lizzie-iii-caro_kaan_engine/history.csv`...
[32;1m[Board] [0mLoaded 21 move(s).
[32;1m[Board] [0mLoading move file `championship/lizzie-iii-caro_kaan_engine/move.csv`...
[32;1m[Board] [0mBlack player is playing b8 to a6.
[32;1m[Board] [0m
[32;1m[Board] [0m    a b c d e f g h 
[32;1m[Board] [0m  -------------------
[32;1m[Board] [0m8 ||[30;1mr[0m| |[30;1mb[0m| |[30;1mK[0m| |[30;1mk[0m|[30;1mr[0m|| 8
[32;1m[Board] [0m  -------------------
[32;1m[Board] [0m7 ||[30;1mp[0m|[30;1mp[0m| |[30;1mp[0m| |[7;1m [0m|[30;1mp[0m|[30;1mp[0m|| 7
[32;1m[Board] [0m  -------------------
[32;1m[Board] [0m6 ||[30;1mk[0m| |[7;1m [0m|[30;1mb[0m|[30;1mp[0m| |[7;1m [0m| || 6
[32;1m[Board] [0m  -------------------
[32;1m[Board] [0m5 || |[7;1m [0m|[0;1mk[0m|[7;1m [0m|[30;1mQ[0m|[7;1m [0m| |[7;1m [0m|| 5
[32;1m[Board] [0m  -------------------
[32;1m[Board] [0m4 ||[0;1mp[0m| |[7;1m [0m| |[7;1m [0m| |[7;1m [0m| || 4
[32;1m[Board] [0m  -------------------
[32;1m[Board] [0m3 || |[0;1mQ[0m|[0;1mp[0m|[7;1m [0m| |[30;1mp[0m|[0;1mp[0m|[0;1mk[0m|| 3
[32;1m[Board] [0m  -------------------
[32;1m[Board] [0m2 ||[7;1m [0m|[0;1mp[0m|[7;1m [0m|[0;1mp[0m|[0;1mp[0m|[0;1mp[0m|[7;1m [0m|[0;1mp[0m|| 2
[32;1m[Board] [0m  -------------------
[32;1m[Board] [0m1 || |[7;1m [0m|[0;1mb[0m|[7;1m [0m|[0;1mK[0m|[0;1mb[0m| |[0;1mr[0m|| 1
[32;1m[Board] [0m  -------------------
[32;1m[Board] [0m    a b c d e f g h
[32;1m[Board] [0m
[32;1m[Referee] [0mThis is the turn of the White player...
Input file: championship/lizzie-iii-caro_kaan_engine/history.csv
Output file: championship/lizzie-iii-caro_kaan_engine/move.csv
Turn of: white
Succesful move
g1f3
8 | R N B Q K B N R 
7 | P P P P P P P P 
6 | _ _ _ _ _ _ _ _ 
5 | _ _ _ _ _ _ _ _ 
4 | _ _ _ _ _ _ _ _ 
3 | _ _ _ _ _ N _ _ 
2 | P P P P P P P P 
1 | R N B Q K B _ R 
-------------------
  | A B C D E F G H 

Turn of: black
Succesful move
f7f5
8 | R N B Q K B N R 
7 | P P P P P _ P P 
6 | _ _ _ _ _ _ _ _ 
5 | _ _ _ _ _ P _ _ 
4 | _ _ _ _ _ _ _ _ 
3 | _ _ _ _ _ N _ _ 
2 | P P P P P P P P 
1 | R N B Q K B _ R 
-------------------
  | A B C D E F G H 

Turn of: white
Succesful move
g2g3
8 | R N B Q K B N R 
7 | P P P P P _ P P 
6 | _ _ _ _ _ _ _ _ 
5 | _ _ _ _ _ P _ _ 
4 | _ _ _ _ _ _ _ _ 
3 | _ _ _ _ _ N P _ 
2 | P P P P P P _ P 
1 | R N B Q K B _ R 
-------------------
  | A B C D E F G H 

Turn of: black
Succesful move
f5f4
8 | R N B Q K B N R 
7 | P P P P P _ P P 
6 | _ _ _ _ _ _ _ _ 
5 | _ _ _ _ _ _ _ _ 
4 | _ _ _ _ _ P _ _ 
3 | _ _ _ _ _ N P _ 
2 | P P P P P P _ P 
1 | R N B Q K B _ R 
-------------------
  | A B C D E F G H 

Turn of: white
Succesful move
a2a4
8 | R N B Q K B N R 
7 | P P P P P _ P P 
6 | _ _ _ _ _ _ _ _ 
5 | _ _ _ _ _ _ _ _ 
4 | P _ _ _ _ P _ _ 
3 | _ _ _ _ _ N P _ 
2 | _ P P P P P _ P 
1 | R N B Q K B _ R 
-------------------
  | A B C D E F G H 

Turn of: black
Succesful move
e7e6
8 | R N B Q K B N R 
7 | P P P P _ _ P P 
6 | _ _ _ _ P _ _ _ 
5 | _ _ _ _ _ _ _ _ 
4 | P _ _ _ _ P _ _ 
3 | _ _ _ _ _ N P _ 
2 | _ P P P P P _ P 
1 | R N B Q K B _ R 
-------------------
  | A B C D E F G H 

Turn of: white
Succesful move
a1a3
8 | R N B Q K B N R 
7 | P P P P _ _ P P 
6 | _ _ _ _ P _ _ _ 
5 | _ _ _ _ _ _ _ _ 
4 | P _ _ _ _ P _ _ 
3 | R _ _ _ _ N P _ 
2 | _ P P P P P _ P 
1 | _ N B Q K B _ R 
-------------------
  | A B C D E F G H 

Turn of: black
Succesful move
d8g5
8 | R N B _ K B N R 
7 | P P P P _ _ P P 
6 | _ _ _ _ P _ _ _ 
5 | _ _ _ _ _ _ Q _ 
4 | P _ _ _ _ P _ _ 
3 | R _ _ _ _ N P _ 
2 | _ P P P P P _ P 
1 | _ N B Q K B _ R 
-------------------
  | A B C D E F G H 

Turn of: white
Succesful move
f3g1
8 | R N B _ K B N R 
7 | P P P P _ _ P P 
6 | _ _ _ _ P _ _ _ 
5 | _ _ _ _ _ _ Q _ 
4 | P _ _ _ _ P _ _ 
3 | R _ _ _ _ _ P _ 
2 | _ P P P P P _ P 
1 | _ N B Q K B N R 
-------------------
  | A B C D E F G H 

Turn of: black
Succesful move
f8a3
8 | R N B _ K _ N R 
7 | P P P P _ _ P P 
6 | _ _ _ _ P _ _ _ 
5 | _ _ _ _ _ _ Q _ 
4 | P _ _ _ _ P _ _ 
3 | B _ _ _ _ _ P _ 
2 | _ P P P P P _ P 
1 | _ N B Q K B N R 
-------------------
  | A B C D E F G H 

Turn of: white
Succesful move
b1c3
8 | R N B _ K _ N R 
7 | P P P P _ _ P P 
6 | _ _ _ _ P _ _ _ 
5 | _ _ _ _ _ _ Q _ 
4 | P _ _ _ _ P _ _ 
3 | B _ N _ _ _ P _ 
2 | _ P P P P P _ P 
1 | _ _ B Q K B N R 
-------------------
  | A B C D E F G H 

Turn of: black
Succesful move
a3f8
8 | R N B _ K B N R 
7 | P P P P _ _ P P 
6 | _ _ _ _ P _ _ _ 
5 | _ _ _ _ _ _ Q _ 
4 | P _ _ _ _ P _ _ 
3 | _ _ N _ _ _ P _ 
2 | _ P P P P P _ P 
1 | _ _ B Q K B N R 
-------------------
  | A B C D E F G H 

Turn of: white
Succesful move
c3e4
8 | R N B _ K B N R 
7 | P P P P _ _ P P 
6 | _ _ _ _ P _ _ _ 
5 | _ _ _ _ _ _ Q _ 
4 | P _ _ _ N P _ _ 
3 | _ _ _ _ _ _ P _ 
2 | _ P P P P P _ P 
1 | _ _ B Q K B N R 
-------------------
  | A B C D E F G H 

Turn of: black
Succesful move
g5e5
8 | R N B _ K B N R 
7 | P P P P _ _ P P 
6 | _ _ _ _ P _ _ _ 
5 | _ _ _ _ Q _ _ _ 
4 | P _ _ _ N P _ _ 
3 | _ _ _ _ _ _ P _ 
2 | _ P P P P P _ P 
1 | _ _ B Q K B N R 
-------------------
  | A B C D E F G H 

Turn of: white
Succesful move
c2c3
8 | R N B _ K B N R 
7 | P P P P _ _ P P 
6 | _ _ _ _ P _ _ _ 
5 | _ _ _ _ Q _ _ _ 
4 | P _ _ _ N P _ _ 
3 | _ _ P _ _ _ P _ 
2 | _ P _ P P P _ P 
1 | _ _ B Q K B N R 
-------------------
  | A B C D E F G H 

Turn of: black
Succesful move
f4f3
8 | R N B _ K B N R 
7 | P P P P _ _ P P 
6 | _ _ _ _ P _ _ _ 
5 | _ _ _ _ Q _ _ _ 
4 | P _ _ _ N _ _ _ 
3 | _ _ P _ _ P P _ 
2 | _ P _ P P P _ P 
1 | _ _ B Q K B N R 
-------------------
  | A B C D E F G H 

Turn of: white
Succesful move
g1h3
8 | R N B _ K B N R 
7 | P P P P _ _ P P 
6 | _ _ _ _ P _ _ _ 
5 | _ _ _ _ Q _ _ _ 
4 | P _ _ _ N _ _ _ 
3 | _ _ P _ _ P P N 
2 | _ P _ P P P _ P 
1 | _ _ B Q K B _ R 
-------------------
  | A B C D E F G H 

Turn of: black
Succesful move
c7c5
8 | R N B _ K B N R 
7 | P P _ P _ _ P P 
6 | _ _ _ _ P _ _ _ 
5 | _ _ P _ Q _ _ _ 
4 | P _ _ _ N _ _ _ 
3 | _ _ P _ _ P P N 
2 | _ P _ P P P _ P 
1 | _ _ B Q K B _ R 
-------------------
  | A B C D E F G H 

Turn of: white
Succesful move
e4c5
8 | R N B _ K B N R 
7 | P P _ P _ _ P P 
6 | _ _ _ _ P _ _ _ 
5 | _ _ N _ Q _ _ _ 
4 | P _ _ _ _ _ _ _ 
3 | _ _ P _ _ P P N 
2 | _ P _ P P P _ P 
1 | _ _ B Q K B _ R 
-------------------
  | A B C D E F G H 

Turn of: black
Succesful move
f8d6
8 | R N B _ K _ N R 
7 | P P _ P _ _ P P 
6 | _ _ _ B P _ _ _ 
5 | _ _ N _ Q _ _ _ 
4 | P _ _ _ _ _ _ _ 
3 | _ _ P _ _ P P N 
2 | _ P _ P P P _ P 
1 | _ _ B Q K B _ R 
-------------------
  | A B C D E F G H 

Turn of: white
Succesful move
d1b3
8 | R N B _ K _ N R 
7 | P P _ P _ _ P P 
6 | _ _ _ B P _ _ _ 
5 | _ _ N _ Q _ _ _ 
4 | P _ _ _ _ _ _ _ 
3 | _ Q P _ _ P P N 
2 | _ P _ P P P _ P 
1 | _ _ B _ K B _ R 
-------------------
  | A B C D E F G H 

Turn of: black
Succesful move
b8a6
8 | R _ B _ K _ N R 
7 | P P _ P _ _ P P 
6 | N _ _ B P _ _ _ 
5 | _ _ N _ Q _ _ _ 
4 | P _ _ _ _ _ _ _ 
3 | _ Q P _ _ P P N 
2 | _ P _ P P P _ P 
[...]
[32;1m[Board] [0m    a b c d e f g h 
[32;1m[Board] [0m  -------------------
[32;1m[Board] [0m8 ||[7;1m [0m|[30;1mK[0m|[7;1m [0m|[30;1mr[0m|[7;1m [0m| |[7;1m [0m|[30;1mr[0m|| 8
[32;1m[Board] [0m  -------------------
[32;1m[Board] [0m7 ||[30;1mp[0m|[7;1m [0m| |[7;1m [0m| |[7;1m [0m|[30;1mp[0m|[7;1m [0m|| 7
[32;1m[Board] [0m  -------------------
[32;1m[Board] [0m6 ||[7;1m [0m| |[7;1m [0m| |[7;1m [0m| |[7;1m [0m| || 6
[32;1m[Board] [0m  -------------------
[32;1m[Board] [0m5 || |[7;1m [0m|[0;1mQ[0m|[7;1m [0m| |[7;1m [0m| |[7;1m [0m|| 5
[32;1m[Board] [0m  -------------------
[32;1m[Board] [0m4 ||[30;1mQ[0m| |[30;1mp[0m| |[0;1mp[0m| |[30;1mp[0m|[30;1mb[0m|| 4
[32;1m[Board] [0m  -------------------
[32;1m[Board] [0m3 || |[0;1mp[0m| |[7;1m [0m| |[30;1mp[0m| |[7;1m [0m|| 3
[32;1m[Board] [0m  -------------------
[32;1m[Board] [0m2 ||[7;1m [0m|[0;1mb[0m|[0;1mK[0m| |[0;1mb[0m|[0;1mp[0m|[7;1m [0m|[30;1mk[0m|| 2
[32;1m[Board] [0m  -------------------
[32;1m[Board] [0m1 || |[7;1m [0m| |[0;1mr[0m| |[7;1m [0m| |[7;1m [0m|| 1
[32;1m[Board] [0m  -------------------
[32;1m[Board] [0m    a b c d e f g h
[32;1m[Board] [0m
[32;1m[Referee] [0mThis is the turn of the White player...
Input file: championship/lizzie-iii-caro_kaan_engine/history.csv
Output file: championship/lizzie-iii-caro_kaan_engine/move.csv
Turn of: white
Succesful move
g1f3
8 | R N B Q K B N R 
7 | P P P P P P P P 
6 | _ _ _ _ _ _ _ _ 
5 | _ _ _ _ _ _ _ _ 
4 | _ _ _ _ _ _ _ _ 
3 | _ _ _ _ _ N _ _ 
2 | P P P P P P P P 
1 | R N B Q K B _ R 
-------------------
  | A B C D E F G H 

Turn of: black
Succesful move
f7f5
8 | R N B Q K B N R 
7 | P P P P P _ P P 
6 | _ _ _ _ _ _ _ _ 
5 | _ _ _ _ _ P _ _ 
4 | _ _ _ _ _ _ _ _ 
3 | _ _ _ _ _ N _ _ 
2 | P P P P P P P P 
1 | R N B Q K B _ R 
-------------------
  | A B C D E F G H 

Turn of: white
Succesful move
g2g3
8 | R N B Q K B N R 
7 | P P P P P _ P P 
6 | _ _ _ _ _ _ _ _ 
5 | _ _ _ _ _ P _ _ 
4 | _ _ _ _ _ _ _ _ 
3 | _ _ _ _ _ N P _ 
2 | P P P P P P _ P 
1 | R N B Q K B _ R 
-------------------
  | A B C D E F G H 

Turn of: black
Succesful move
f5f4
8 | R N B Q K B N R 
7 | P P P P P _ P P 
6 | _ _ _ _ _ _ _ _ 
5 | _ _ _ _ _ _ _ _ 
4 | _ _ _ _ _ P _ _ 
3 | _ _ _ _ _ N P _ 
2 | P P P P P P _ P 
1 | R N B Q K B _ R 
-------------------
  | A B C D E F G H 

Turn of: white
Succesful move
a2a4
8 | R N B Q K B N R 
7 | P P P P P _ P P 
6 | _ _ _ _ _ _ _ _ 
5 | _ _ _ _ _ _ _ _ 
4 | P _ _ _ _ P _ _ 
3 | _ _ _ _ _ N P _ 
2 | _ P P P P P _ P 
1 | R N B Q K B _ R 
-------------------
  | A B C D E F G H 

Turn of: black
Succesful move
e7e6
8 | R N B Q K B N R 
7 | P P P P _ _ P P 
6 | _ _ _ _ P _ _ _ 
5 | _ _ _ _ _ _ _ _ 
4 | P _ _ _ _ P _ _ 
3 | _ _ _ _ _ N P _ 
2 | _ P P P P P _ P 
1 | R N B Q K B _ R 
-------------------
  | A B C D E F G H 

Turn of: white
Succesful move
a1a3
8 | R N B Q K B N R 
7 | P P P P _ _ P P 
6 | _ _ _ _ P _ _ _ 
5 | _ _ _ _ _ _ _ _ 
4 | P _ _ _ _ P _ _ 
3 | R _ _ _ _ N P _ 
2 | _ P P P P P _ P 
1 | _ N B Q K B _ R 
-------------------
  | A B C D E F G H 

Turn of: black
Succesful move
d8g5
8 | R N B _ K B N R 
7 | P P P P _ _ P P 
6 | _ _ _ _ P _ _ _ 
5 | _ _ _ _ _ _ Q _ 
4 | P _ _ _ _ P _ _ 
3 | R _ _ _ _ N P _ 
2 | _ P P P P P _ P 
1 | _ N B Q K B _ R 
-------------------
  | A B C D E F G H 

Turn of: white
Succesful move
f3g1
8 | R N B _ K B N R 
7 | P P P P _ _ P P 
6 | _ _ _ _ P _ _ _ 
5 | _ _ _ _ _ _ Q _ 
4 | P _ _ _ _ P _ _ 
3 | R _ _ _ _ _ P _ 
2 | _ P P P P P _ P 
1 | _ N B Q K B N R 
-------------------
  | A B C D E F G H 

Turn of: black
Succesful move
f8a3
8 | R N B _ K _ N R 
7 | P P P P _ _ P P 
6 | _ _ _ _ P _ _ _ 
5 | _ _ _ _ _ _ Q _ 
4 | P _ _ _ _ P _ _ 
3 | B _ _ _ _ _ P _ 
2 | _ P P P P P _ P 
1 | _ N B Q K B N R 
-------------------
  | A B C D E F G H 

Turn of: white
Succesful move
b1c3
8 | R N B _ K _ N R 
7 | P P P P _ _ P P 
6 | _ _ _ _ P _ _ _ 
5 | _ _ _ _ _ _ Q _ 
4 | P _ _ _ _ P _ _ 
3 | B _ N _ _ _ P _ 
2 | _ P P P P P _ P 
1 | _ _ B Q K B N R 
-------------------
  | A B C D E F G H 

Turn of: black
Succesful move
a3f8
8 | R N B _ K B N R 
7 | P P P P _ _ P P 
6 | _ _ _ _ P _ _ _ 
5 | _ _ _ _ _ _ Q _ 
4 | P _ _ _ _ P _ _ 
3 | _ _ N _ _ _ P _ 
2 | _ P P P P P _ P 
1 | _ _ B Q K B N R 
-------------------
  | A B C D E F G H 

Turn of: white
Succesful move
c3e4
8 | R N B _ K B N R 
7 | P P P P _ _ P P 
6 | _ _ _ _ P _ _ _ 
5 | _ _ _ _ _ _ Q _ 
4 | P _ _ _ N P _ _ 
3 | _ _ _ _ _ _ P _ 
2 | _ P P P P P _ P 
1 | _ _ B Q K B N R 
-------------------
  | A B C D E F G H 

Turn of: black
Succesful move
g5e5
8 | R N B _ K B N R 
7 | P P P P _ _ P P 
6 | _ _ _ _ P _ _ _ 
5 | _ _ _ _ Q _ _ _ 
4 | P _ _ _ N P _ _ 
3 | _ _ _ _ _ _ P _ 
2 | _ P P P P P _ P 
1 | _ _ B Q K B N R 
-------------------
  | A B C D E F G H 

Turn of: white
Succesful move
c2c3
8 | R N B _ K B N R 
7 | P P P P _ _ P P 
6 | _ _ _ _ P _ _ _ 
5 | _ _ _ _ Q _ _ _ 
4 | P _ _ _ N P _ _ 
3 | _ _ P _ _ _ P _ 
2 | _ P _ P P P _ P 
1 | _ _ B Q K B N R 
-------------------
  | A B C D E F G H 

Turn of: black
Succesful move
f4f3
8 | R N B _ K B N R 
7 | P P P P _ _ P P 
6 | _ _ _ _ P _ _ _ 
5 | _ _ _ _ Q _ _ _ 
4 | P _ _ _ N _ _ _ 
3 | _ _ P _ _ P P _ 
2 | _ P _ P P P _ P 
1 | _ _ B Q K B N R 
-------------------
  | A B C D E F G H 

Turn of: white
Succesful move
g1h3
8 | R N B _ K B N R 
7 | P P P P _ _ P P 
6 | _ _ _ _ P _ _ _ 
5 | _ _ _ _ Q _ _ _ 
4 | P _ _ _ N _ _ _ 
3 | _ _ P _ _ P P N 
2 | _ P _ P P P _ P 
1 | _ _ B Q K B _ R 
-------------------
  | A B C D E F G H 

Turn of: black
Succesful move
c7c5
8 | R N B _ K B N R 
7 | P P _ P _ _ P P 
6 | _ _ _ _ P _ _ _ 
5 | _ _ P _ Q _ _ _ 
4 | P _ _ _ N _ _ _ 
3 | _ _ P _ _ P P N 
2 | _ P _ P P P _ P 
1 | _ _ B Q K B _ R 
-------------------
  | A B C D E F G H 

Turn of: white
Succesful move
e4c5
8 | R N B _ K B N R 
7 | P P _ P _ _ P P 
6 | _ _ _ _ P _ _ _ 
5 | _ _ N _ Q _ _ _ 
4 | P _ _ _ _ _ _ _ 
3 | _ _ P _ _ P P N 
2 | _ P _ P P P _ P 
1 | _ _ B Q K B _ R 
-------------------
  | A B C D E F G H 

Turn of: black
Succesful move
f8d6
8 | R N B _ K _ N R 
7 | P P _ P _ _ P P 
6 | _ _ _ B P _ _ _ 
5 | _ _ N _ Q _ _ _ 
4 | P _ _ _ _ _ _ _ 
3 | _ _ P _ _ P P N 
2 | _ P _ P P P _ P 
1 | _ _ B Q K B _ R 
-------------------
  | A B C D E F G H 

Turn of: white
Succesful move
d1b3
8 | R N B _ K _ N R 
7 | P P _ P _ _ P P 
6 | _ _ _ B P _ _ _ 
5 | _ _ N _ Q _ _ _ 
4 | P _ _ _ _ _ _ _ 
3 | _ Q P _ _ P P N 
2 | _ P _ P P P _ P 
1 | _ _ B _ K B _ R 
-------------------
  | A B C D E F G H 

Turn of: black
Succesful move
b8a6
8 | R _ B _ K _ N R 
7 | P P _ P _ _ P P 
6 | N _ _ B P _ _ _ 
5 | _ _ N _ Q _ _ _ 
4 | P _ _ _ _ _ _ _ 
3 | _ Q P _ _ P P N 
2 | _ P _ P P P _ P 
1 | _ _ B _ K B _ R 
-------------------
  | A B C D E F G H 

Turn of: white
Succesful move
h1g1
8 | R _ B _ K _ N R 
7 | P P _ P _ _ P P 
6 | N _ _ B P _ _ _ 
5 | _ _ N _ Q _ _ _ 
4 | P _ _ _ _ _ _ _ 
3 | _ Q P _ _ P P N 
2 | _ P _ P P P _ P 
1 | _ _ B _ K B R _ 
-------------------
  | A B C D E F G H 

Turn of: black
Succesful move
d6c7
8 | R _ B _ K _ N R 
7 | P P B P _ _ P P 
6 | N _ _ _ P _ _ _ 
5 | _ _ N _ Q _ _ _ 
4 | P _ _ _ _ _ _ _ 
3 | _ Q P _ _ P P N 
2 | _ P _ P P P _ P 
1 | _ _ B _ K B R _ 
-------------------
  | A B C D E F G H 

Turn of: white
Succesful move
e2e4
8 | R _ B _ K _ N R 
7 | P P B P _ _ P P 
6 | N _ _ _ P _ _ _ 
5 | _ _ N _ Q _ _ _ 
4 | P _ _ _ P _ _ _ 
3 | _ Q P _ _ P P N 
2 | _ P _ P _ P _ P 
1 | _ _ B _ K B R _ 
-------------------
  | A B C D E F G H 

Turn of: black
Succesful move
h7h6
8 | R _ B _ K _ N R 
7 | P P B P _ _ P _ 
6 | N _ _ _ P _ _ P 
5 | _ _ N _ Q _ _ _ 
4 | P _ _ _ P _ _ _ 
3 | _ Q P _ _ P P N 
2 | _ P _ P _ P _ P 
1 | _ _ B _ K B R _ 
-------------------
  | A B C D E F G H 

Turn of: white
Succesful move
b3a3
8 | R _ B _ K _ N R 
7 | P P B P _ _ P _ 
6 | N _ _ _ P _ _ P 
5 | _ _ N _ Q _ _ _ 
4 | P _ _ _ P _ _ _ 
3 | Q _ P _ _ P P N 
2 | _ P _ P _ P _ P 
1 | _ _ B _ K B R _ 
-------------------
  | A B C D E F G H 

Turn of: black
Succesful move
a6b4
8 | R _ B _ K _ N R 
7 | P P B P _ _ P _ 
6 | _ _ _ _ P _ _ P 
5 | _ _ N _ Q _ _ _ 
4 | P N _ _ P _ _ _ 
3 | Q _ P _ _ P P N 
2 | _ P _ P _ P _ P 
1 | _ _ B _ K B R _ 
-------------------
  | A B C D E F G H 

Turn of: white
Succesful move
e1d1
8 | R _ B _ K _ N R 
7 | P P B P _ _ P _ 
6 | _ _ _ _ P _ _ P 
5 | _ _ N _ Q _ _ _ 
4 | P N _ _ P _ _ _ 
3 | Q _ P _ _ P P N 
2 | _ P _ P _ P _ P 
1 | _ _ B K _ B R _ 
-------------------
  | A B C D E F G H 

Turn of: black
Succesful move
c7d6
8 | R _ B _ K _ N R 
7 | P P _ P _ _ P _ 
6 | _ _ _ B P _ _ P 
5 | _ _ N _ Q _ _ _ 
4 | P N _ _ P _ _ _ 
3 | Q _ P _ _ P P N 
2 | _ P _ P _ P _ P 
1 | _ _ B K _ B R _ 
-------------------
  | A B C D E F G H 

Turn of: white
Succesful move
c5b7
8 | R _ B _ K _ N R 
7 | P N _ P _ _ P _ 
6 | _ _ _ B P _ _ P 
5 | _ _ _ _ Q _ _ _ 
4 | P N _ _ P _ _ _ 
3 | Q _ P _ _ P P N 
2 | _ P _ P _ P _ P 
1 | _ _ B K _ B R _ 
-------------------
  | A B C D E F G H 

Turn of: black
Succesful move
e5c5
8 | R _ B _ K _ N R 
7 | P N _ P _ _ P _ 
6 | _ _ _ B P _ _ P 
5 | _ _ Q _ _ _ _ _ 
4 | P N _ _ P _ _ _ 
3 | Q _ P _ _ P P N 
2 | _ P _ P _ P _ P 
1 | _ _ B K _ B R _ 
-------------------
  | A B C D E F G H 

Turn of: white
Succesful move
f1a6
8 | R _ B _ K _ N R 
7 | P N _ P _ _ P _ 
6 | B _ _ B P _ _ P 
5 | _ _ Q _ _ _ _ _ 
4 | P N _ _ P _ _ _ 
3 | Q _ P _ _ P P N 
2 | _ P _ P _ P _ P 
1 | _ _ B K _ _ R _ 
-------------------
  | A B C D E F G H 

Turn of: black
Succesful move
b4a2
8 | R _ B _ K _ N R 
7 | P N _ P _ _ P _ 
6 | B _ _ B P _ _ P 
5 | _ _ Q _ _ _ _ _ 
4 | P _ _ _ P _ _ _ 
3 | Q _ P _ _ P P N 
2 | N P _ P _ P _ P 
1 | _ _ B K _ _ R _ 
-------------------
  | A B C D E F G H 

Turn of: white
Succesful move
h3f4
8 | R _ B _ K _ N R 
7 | P N _ P _ _ P _ 
6 | B _ _ B P _ _ P 
5 | _ _ Q _ _ _ _ _ 
4 | P _ _ _ P N _ _ 
3 | Q _ P _ _ P P _ 
2 | N P _ P _ P _ P 
1 | _ _ B K _ _ R _ 
-------------------
  | A B C D E F G H 

Turn of: black
Succesful move
c8b7
8 | R _ _ _ K _ N R 
7 | P B _ P _ _ P _ 
6 | B _ _ B P _ _ P 
5 | _ _ Q _ _ _ _ _ 
4 | P _ _ _ P N _ _ 
3 | Q _ P _ _ P P _ 
2 | N P _ P _ P _ P 
1 | _ _ B K _ _ R _ 
-------------------
  | A B C D E F G H 

Turn of: white
Succesful move
f4e6
8 | R _ _ _ K _ N R 
7 | P B _ P _ _ P _ 
6 | B _ _ B N _ _ P 
5 | _ _ Q _ _ _ _ _ 
4 | P _ _ _ P _ _ _ 
3 | Q _ P _ _ P P _ 
2 | N P _ P _ P _ P 
1 | _ _ B K _ _ R _ 
-------------------
  | A B C D E F G H 

Turn of: black
Succesful move
d6b8
8 | R B _ _ K _ N R 
7 | P B _ P _ _ P _ 
6 | B _ _ _ N _ _ P 
5 | _ _ Q _ _ _ _ _ 
4 | P _ _ _ P _ _ _ 
3 | Q _ P _ _ P P _ 
2 | N P _ P _ P _ P 
1 | _ _ B K _ _ R _ 
-------------------
  | A B C D E F G H 

Turn of: white
Succesful move
d1c2
8 | R B _ _ K _ N R 
7 | P B _ P _ _ P _ 
6 | B _ _ _ N _ _ P 
5 | _ _ Q _ _ _ _ _ 
4 | P _ _ _ P _ _ _ 
3 | Q _ P _ _ P P _ 
2 | N P K P _ P _ P 
1 | _ _ B _ _ _ R _ 
-------------------
  | A B C D E F G H 

Turn of: black
Succesful move
c5d4
8 | R B _ _ K _ N R 
7 | P B _ P _ _ P _ 
6 | B _ _ _ N _ _ P 
5 | _ _ _ _ _ _ _ _ 
4 | P _ _ Q P _ _ _ 
3 | Q _ P _ _ P P _ 
2 | N P K P _ P _ P 
1 | _ _ B _ _ _ R _ 
-------------------
  | A B C D E F G H 

Turn of: white
Succesful move
g1f1
8 | R B _ _ K _ N R 
7 | P B _ P _ _ P _ 
6 | B _ _ _ N _ _ P 
5 | _ _ _ _ _ _ _ _ 
4 | P _ _ Q P _ _ _ 
3 | Q _ P _ _ P P _ 
2 | N P K P _ P _ P 
1 | _ _ B _ _ R _ _ 
-------------------
  | A B C D E F G H 

Turn of: black
Succesful move
g8f6
8 | R B _ _ K _ _ R 
7 | P B _ P _ _ P _ 
6 | B _ _ _ N N _ P 
5 | _ _ _ _ _ _ _ _ 
4 | P _ _ Q P _ _ _ 
3 | Q _ P _ _ P P _ 
2 | N P K P _ P _ P 
1 | _ _ B _ _ R _ _ 
-------------------
  | A B C D E F G H 

Turn of: white
Succesful move
e6g5
8 | R B _ _ K _ _ R 
7 | P B _ P _ _ P _ 
6 | B _ _ _ _ N _ P 
5 | _ _ _ _ _ _ N _ 
4 | P _ _ Q P _ _ _ 
3 | Q _ P _ _ P P _ 
2 | N P K P _ P _ P 
1 | _ _ B _ _ R _ _ 
-------------------
  | A B C D E F G H 

Turn of: black
Succesful move
b7c8
8 | R B B _ K _ _ R 
7 | P _ _ P _ _ P _ 
6 | B _ _ _ _ N _ P 
5 | _ _ _ _ _ _ N _ 
4 | P _ _ Q P _ _ _ 
3 | Q _ P _ _ P P _ 
2 | N P K P _ P _ P 
1 | _ _ B _ _ R _ _ 
-------------------
  | A B C D E F G H 

Turn of: white
Succesful move
f1h1
8 | R B B _ K _ _ R 
7 | P _ _ P _ _ P _ 
6 | B _ _ _ _ N _ P 
5 | _ _ _ _ _ _ N _ 
4 | P _ _ Q P _ _ _ 
3 | Q _ P _ _ P P _ 
2 | N P K P _ P _ P 
1 | _ _ B _ _ _ _ R 
-------------------
  | A B C D E F G H 

Turn of: black
Succesful move
d4b4
8 | R B B _ K _ _ R 
7 | P _ _ P _ _ P _ 
6 | B _ _ _ _ N _ P 
5 | _ _ _ _ _ _ N _ 
4 | P Q _ _ P _ _ _ 
3 | Q _ P _ _ P P _ 
2 | N P K P _ P _ P 
1 | _ _ B _ _ _ _ R 
-------------------
  | A B C D E F G H 

Turn of: white
Succesful move
a6c8
8 | R B B _ K _ _ R 
7 | P _ _ P _ _ P _ 
6 | _ _ _ _ _ N _ P 
5 | _ _ _ _ _ _ N _ 
4 | P Q _ _ P _ _ _ 
3 | Q _ P _ _ P P _ 
2 | N P K P _ P _ P 
1 | _ _ B _ _ _ _ R 
-------------------
  | A B C D E F G H 

Turn of: black
Succesful move
b4a4
8 | R B B _ K _ _ R 
7 | P _ _ P _ _ P _ 
6 | _ _ _ _ _ N _ P 
5 | _ _ _ _ _ _ N _ 
4 | Q _ _ _ P _ _ _ 
3 | Q _ P _ _ P P _ 
2 | N P K P _ P _ P 
1 | _ _ B _ _ _ _ R 
-------------------
  | A B C D E F G H 

Turn of: white
Succesful move
b2b3
8 | R B B _ K _ _ R 
7 | P _ _ P _ _ P _ 
6 | _ _ _ _ _ N _ P 
5 | _ _ _ _ _ _ N _ 
4 | Q _ _ _ P _ _ _ 
3 | Q P P _ _ P P _ 
2 | N _ K P _ P _ P 
1 | _ _ B _ _ _ _ R 
-------------------
  | A B C D E F G H 

Turn of: black
Succesful move
b8g3
8 | R _ B _ K _ _ R 
7 | P _ _ P _ _ P _ 
6 | _ _ _ _ _ N _ P 
5 | _ _ _ _ _ _ N _ 
4 | Q _ _ _ P _ _ _ 
3 | Q P P _ _ P B _ 
2 | N _ K P _ P _ P 
1 | _ _ B _ _ _ _ R 
-------------------
  | A B C D E F G H 

Turn of: white
Succesful move
h1g1
8 | R _ B _ K _ _ R 
7 | P _ _ P _ _ P _ 
6 | _ _ _ _ _ N _ P 
5 | _ _ _ _ _ _ N _ 
4 | Q _ _ _ P _ _ _ 
3 | Q P P _ _ P B _ 
2 | N _ K P _ P _ P 
1 | _ _ B _ _ _ R _ 
-------------------
  | A B C D E F G H 

Turn of: black
Succesful move
f6g4
8 | R _ B _ K _ _ R 
7 | P _ _ P _ _ P _ 
6 | _ _ _ _ _ _ _ P 
5 | _ _ _ _ _ _ N _ 
4 | Q _ _ _ P _ N _ 
3 | Q P P _ _ P B _ 
2 | N _ K P _ P _ P 
1 | _ _ B _ _ _ R _ 
-------------------
  | A B C D E F G H 

Turn of: white
Succesful move
g1h1
8 | R _ B _ K _ _ R 
7 | P _ _ P _ _ P _ 
6 | _ _ _ _ _ _ _ P 
5 | _ _ _ _ _ _ N _ 
4 | Q _ _ _ P _ N _ 
3 | Q P P _ _ P B _ 
2 | N _ K P _ P _ P 
1 | _ _ B _ _ _ _ R 
-------------------
  | A B C D E F G H 

Turn of: black
Succesful move
g3h4
8 | R _ B _ K _ _ R 
7 | P _ _ P _ _ P _ 
6 | _ _ _ _ _ _ _ P 
5 | _ _ _ _ _ _ N _ 
4 | Q _ _ _ P _ N B 
3 | Q P P _ _ P _ _ 
2 | N _ K P _ P _ P 
1 | _ _ B _ _ _ _ R 
-------------------
  | A B C D E F G H 

Turn of: white
Succesful move
c8a6
8 | R _ _ _ K _ _ R 
7 | P _ _ P _ _ P _ 
6 | B _ _ _ _ _ _ P 
5 | _ _ _ _ _ _ N _ 
4 | Q _ _ _ P _ N B 
3 | Q P P _ _ P _ _ 
2 | N _ K P _ P _ P 
1 | _ _ B _ _ _ _ R 
-------------------
  | A B C D E F G H 

Turn of: black
Succesful move
a2c3
8 | R _ _ _ K _ _ R 
7 | P _ _ P _ _ P _ 
6 | B _ _ _ _ _ _ P 
5 | _ _ _ _ _ _ N _ 
4 | Q _ _ _ P _ N B 
3 | Q P N _ _ P _ _ 
2 | _ _ K P _ P _ P 
1 | _ _ B _ _ _ _ R 
-------------------
  | A B C D E F G H 

Turn of: white
Succesful move
h1f1
8 | R _ _ _ K _ _ R 
7 | P _ _ P _ _ P _ 
6 | B _ _ _ _ _ _ P 
5 | _ _ _ _ _ _ N _ 
4 | Q _ _ _ P _ N B 
3 | Q P N _ _ P _ _ 
2 | _ _ K P _ P _ P 
1 | _ _ B _ _ R _ _ 
-------------------
  | A B C D E F G H 

Turn of: black
Succesful move
g4h2
8 | R _ _ _ K _ _ R 
7 | P _ _ P _ _ P _ 
6 | B _ _ _ _ _ _ P 
5 | _ _ _ _ _ _ N _ 
4 | Q _ _ _ P _ _ B 
3 | Q P N _ _ P _ _ 
2 | _ _ K P _ P _ N 
1 | _ _ B _ _ R _ _ 
-------------------
  | A B C D E F G H 

Turn of: white
Succesful move
d2c3
8 | R _ _ _ K _ _ R 
7 | P _ _ P _ _ P _ 
6 | B _ _ _ _ _ _ P 
5 | _ _ _ _ _ _ N _ 
4 | Q _ _ _ P _ _ B 
3 | Q P P _ _ P _ _ 
2 | _ _ K _ _ P _ N 
1 | _ _ B _ _ R _ _ 
-------------------
  | A B C D E F G H 

Turn of: black
Succesful move
d7d5
8 | R _ _ _ K _ _ R 
7 | P _ _ _ _ _ P _ 
6 | B _ _ _ _ _ _ P 
5 | _ _ _ P _ _ N _ 
4 | Q _ _ _ P _ _ B 
3 | Q P P _ _ P _ _ 
2 | _ _ K _ _ P _ N 
1 | _ _ B _ _ R _ _ 
-------------------
  | A B C D E F G H 

Turn of: white
Succesful move
a6e2
8 | R _ _ _ K _ _ R 
7 | P _ _ _ _ _ P _ 
6 | _ _ _ _ _ _ _ P 
5 | _ _ _ P _ _ N _ 
4 | Q _ _ _ P _ _ B 
3 | Q P P _ _ P _ _ 
2 | _ _ K _ B P _ N 
1 | _ _ B _ _ R _ _ 
-------------------
  | A B C D E F G H 

Turn of: black
Succesful move
h6g5
8 | R _ _ _ K _ _ R 
7 | P _ _ _ _ _ P _ 
6 | _ _ _ _ _ _ _ _ 
5 | _ _ _ P _ _ P _ 
4 | Q _ _ _ P _ _ B 
3 | Q P P _ _ P _ _ 
2 | _ _ K _ B P _ N 
1 | _ _ B _ _ R _ _ 
-------------------
  | A B C D E F G H 

Turn of: white
Succesful move
c3c4
8 | R _ _ _ K _ _ R 
7 | P _ _ _ _ _ P _ 
6 | _ _ _ _ _ _ _ _ 
5 | _ _ _ P _ _ P _ 
4 | Q _ P _ P _ _ B 
3 | Q P _ _ _ P _ _ 
2 | _ _ K _ B P _ N 
1 | _ _ B _ _ R _ _ 
-------------------
  | A B C D E F G H 

Turn of: black
Succesful move
d5c4
8 | R _ _ _ K _ _ R 
7 | P _ _ _ _ _ P _ 
6 | _ _ _ _ _ _ _ _ 
5 | _ _ _ _ _ _ P _ 
4 | Q _ P _ P _ _ B 
3 | Q P _ _ _ P _ _ 
2 | _ _ K _ B P _ N 
1 | _ _ B _ _ R _ _ 
-------------------
  | A B C D E F G H 

Turn of: white
Succesful move
c1b2
8 | R _ _ _ K _ _ R 
7 | P _ _ _ _ _ P _ 
6 | _ _ _ _ _ _ _ _ 
5 | _ _ _ _ _ _ P _ 
4 | Q _ P _ P _ _ B 
3 | Q P _ _ _ P _ _ 
2 | _ B K _ B P _ N 
1 | _ _ _ _ _ R _ _ 
-------------------
  | A B C D E F G H 

Turn of: black
move NOT possible
Move failed
e8c8
8 | R _ _ _ K _ _ R 
7 | P _ _ _ _ _ P _ 
6 | _ _ _ _ _ _ _ _ 
5 | _ _ _ _ _ _ P _ 
4 | Q _ P _ P _ _ B 
3 | Q P _ _ _ P _ _ 
2 | _ B K _ B P _ N 
1 | _ _ _ _ _ R _ _ 
-------------------
  | A B C D E F G H 

Turn of: black
not your turn: 1 while current is 0
move NOT possible
Move failed
a3c5
8 | R _ _ _ K _ _ R 
7 | P _ _ _ _ _ P _ 
6 | _ _ _ _ _ _ _ _ 
5 | _ _ _ _ _ _ P _ 
4 | Q _ P _ P _ _ B 
3 | Q P _ _ _ P _ _ 
2 | _ B K _ B P _ N 
1 | _ _ _ _ _ R _ _ 
-------------------
  | A B C D E F G H 

Turn of: black
no piece at (2, 7)
move NOT possible
Move failed
c8b8
8 | R _ _ _ K _ _ R 
7 | P _ _ _ _ _ P _ 
6 | _ _ _ _ _ _ _ _ 
5 | _ _ _ _ _ _ P _ 
4 | Q _ P _ P _ _ B 
3 | Q P _ _ _ P _ _ 
2 | _ B K _ B P _ N 
1 | _ _ _ _ _ R _ _ 
-------------------
  | A B C D E F G H 

Turn of: black
not your turn: 1 while current is 0
move NOT possible
Move failed
f1d1
8 | R _ _ _ K _ _ R 
7 | P _ _ _ _ _ P _ 
6 | _ _ _ _ _ _ _ _ 
5 | _ _ _ _ _ _ P _ 
4 | Q _ P _ P _ _ B 
3 | Q P _ _ _ P _ _ 
2 | _ B K _ B P _ N 
1 | _ _ _ _ _ R _ _ 
-------------------
  | A B C D E F G H 

Turn of: black
Succesful move
g5g4
8 | R _ _ _ K _ _ R 
7 | P _ _ _ _ _ P _ 
6 | _ _ _ _ _ _ _ _ 
5 | _ _ _ _ _ _ _ _ 
4 | Q _ P _ P _ P B 
3 | Q P _ _ _ P _ _ 
2 | _ B K _ B P _ N 
1 | _ _ _ _ _ R _ _ 
-------------------
  | A B C D E F G H 

We are playing as White
Move history:
g1f3
f7f5
g2g3
f5f4
a2a4
e7e6
a1a3
d8g5
f3g1
f8a3
b1c3
a3f8
c3e4
g5e5
c2c3
f4f3
g1h3
c7c5
e4c5
f8d6
d1b3
b8a6
h1g1
d6c7
e2e4
h7h6
b3a3
a6b4
e1d1
c7d6
c5b7
e5c5
f1a6
b4a2
h3f4
c8b7
f4e6
d6b8
d1c2
c5d4
g1f1
g8f6
e6g5
b7c8
f1h1
d4b4
a6c8
b4a4
b2b3
b8g3
h1g1
f6g4
g1h1
g3h4
c8a6
a2c3
h1f1
g4h2
d2c3
d7d5
a6e2
h6g5
c3c4
d5c4
c1b2
e8c8
a3c5
c8b8
f1d1
g5g4
8 | R _ _ _ K _ _ R 
7 | P _ _ _ _ _ P _ 
6 | _ _ _ _ _ _ _ _ 
5 | _ _ _ _ _ _ _ _ 
4 | Q _ P _ P _ P B 
3 | Q P _ _ _ P _ _ 
2 | _ B K _ B P _ N 
1 | _ _ _ _ _ R _ _ 
-------------------
  | A B C D E F G H 

It is white's turn to play.
AI's move: a3a1
Move written: a3a1
[32;1m[Game] [0mPlayer's error code: 0
[32;1m[Game] [0mChecking move validity...
[32;1m[Board] [0mInitializing board...
[32;1m[Board] [0mLoading history file `championship/lizzie-iii-caro_kaan_engine/history.csv`...
[32;1m[Board] [0mLoaded 70 move(s).
[32;1m[Board] [0mLoading move file `championship/lizzie-iii-caro_kaan_engine/move.csv`...
[32;1m[Board] [0mWhite player is playing a3 to a1.
[32;1m[Board] [0m[31;1m[ERROR][0m Move source (a3) contains no piece :(
[32;1m[Referee] [0mInvalid move (code: -3) :(
[32;1m[Game] [0mWhite player has lost on illegal move.
