[32;1m[Board] [0mInitializing board...
[32;1m[Board] [0m
[32;1m[Board] [0m    a b c d e f g h 
[32;1m[Board] [0m  -------------------
[32;1m[Board] [0m8 ||[30;1mr[0m|[30;1mk[0m|[30;1mb[0m|[30;1mQ[0m|[30;1mK[0m|[30;1mb[0m|[30;1mk[0m|[30;1mr[0m|| 8
[32;1m[Board] [0m  -------------------
[32;1m[Board] [0m7 ||[30;1mp[0m|[30;1mp[0m|[30;1mp[0m|[30;1mp[0m|[30;1mp[0m|[30;1mp[0m|[30;1mp[0m|[30;1mp[0m|| 7
[32;1m[Board] [0m  -------------------
[32;1m[Board] [0m6 ||[7;1m [0m| |[7;1m [0m| |[7;1m [0m| |[7;1m [0m| || 6
[32;1m[Board] [0m  -------------------
[32;1m[Board] [0m5 || |[7;1m [0m| |[7;1m [0m| |[7;1m [0m| |[7;1m [0m|| 5
[32;1m[Board] [0m  -------------------
[32;1m[Board] [0m4 ||[7;1m [0m| |[7;1m [0m| |[7;1m [0m| |[7;1m [0m| || 4
[32;1m[Board] [0m  -------------------
[32;1m[Board] [0m3 || |[7;1m [0m| |[7;1m [0m| |[7;1m [0m| |[7;1m [0m|| 3
[32;1m[Board] [0m  -------------------
[32;1m[Board] [0m2 ||[0;1mp[0m|[0;1mp[0m|[0;1mp[0m|[0;1mp[0m|[0;1mp[0m|[0;1mp[0m|[0;1mp[0m|[0;1mp[0m|| 2
[32;1m[Board] [0m  -------------------
[32;1m[Board] [0m1 ||[0;1mr[0m|[0;1mk[0m|[0;1mb[0m|[0;1mQ[0m|[0;1mK[0m|[0;1mb[0m|[0;1mk[0m|[0;1mr[0m|| 1
[32;1m[Board] [0m  -------------------
[32;1m[Board] [0m    a b c d e f g h
[32;1m[Board] [0m
[32;1m[Referee] [0mThis is the turn of the White player...
Input file: championship/lizzie-iii-blueherring/history.csv
Output file: championship/lizzie-iii-blueherring/move.csv
We are playing as White
Move history:
8 | R N B Q K B N R 
7 | P P P P P P P P 
6 | _ _ _ _ _ _ _ _ 
5 | _ _ _ _ _ _ _ _ 
4 | _ _ _ _ _ _ _ _ 
3 | _ _ _ _ _ _ _ _ 
2 | P P P P P P P P 
1 | R N B Q K B N R 
-------------------
  | A B C D E F G H 

It is white's turn to play.
AI's move: e2e3
Move written: e2e3
[32;1m[Game] [0mPlayer's error code: 0
[32;1m[Game] [0mChecking move validity...
[32;1m[Board] [0mInitializing board...
[32;1m[Board] [0mLoading history file `championship/lizzie-iii-blueherring/history.csv`...
[32;1m[Board] [0mLoaded 0 move(s).
[32;1m[Board] [0mLoading move file `championship/lizzie-iii-blueherring/move.csv`...
[32;1m[Board] [0mWhite player is playing e2 to e3.
[32;1m[Board] [0m
[32;1m[Board] [0m    a b c d e f g h 
[32;1m[Board] [0m  -------------------
[32;1m[Board] [0m8 ||[30;1mr[0m|[30;1mk[0m|[30;1mb[0m|[30;1mQ[0m|[30;1mK[0m|[30;1mb[0m|[30;1mk[0m|[30;1mr[0m|| 8
[32;1m[Board] [0m  -------------------
[32;1m[Board] [0m7 ||[30;1mp[0m|[30;1mp[0m|[30;1mp[0m|[30;1mp[0m|[30;1mp[0m|[30;1mp[0m|[30;1mp[0m|[30;1mp[0m|| 7
[32;1m[Board] [0m  -------------------
[32;1m[Board] [0m6 ||[7;1m [0m| |[7;1m [0m| |[7;1m [0m| |[7;1m [0m| || 6
[32;1m[Board] [0m  -------------------
[32;1m[Board] [0m5 || |[7;1m [0m| |[7;1m [0m| |[7;1m [0m| |[7;1m [0m|| 5
[32;1m[Board] [0m  -------------------
[32;1m[Board] [0m4 ||[7;1m [0m| |[7;1m [0m| |[7;1m [0m| |[7;1m [0m| || 4
[32;1m[Board] [0m  -------------------
[32;1m[Board] [0m3 || |[7;1m [0m| |[7;1m [0m|[0;1mp[0m|[7;1m [0m| |[7;1m [0m|| 3
[32;1m[Board] [0m  -------------------
[32;1m[Board] [0m2 ||[0;1mp[0m|[0;1mp[0m|[0;1mp[0m|[0;1mp[0m|[7;1m [0m|[0;1mp[0m|[0;1mp[0m|[0;1mp[0m|| 2
[32;1m[Board] [0m  -------------------
[32;1m[Board] [0m1 ||[0;1mr[0m|[0;1mk[0m|[0;1mb[0m|[0;1mQ[0m|[0;1mK[0m|[0;1mb[0m|[0;1mk[0m|[0;1mr[0m|| 1
[32;1m[Board] [0m  -------------------
[32;1m[Board] [0m    a b c d e f g h
[32;1m[Board] [0m
[32;1m[Referee] [0mThis is the turn of the Black player...
[32;1m[Game] [0mPlayer's error code: 0
[32;1m[Game] [0mChecking move validity...
[32;1m[Board] [0mInitializing board...
[32;1m[Board] [0mLoading history file `championship/lizzie-iii-blueherring/history.csv`...
[32;1m[Board] [0mLoaded 1 move(s).
[32;1m[Board] [0mLoading move file `championship/lizzie-iii-blueherring/move.csv`...
[32;1m[Board] [0mBlack player is playing e7 to e5.
[32;1m[Board] [0m
[32;1m[Board] [0m    a b c d e f g h 
[32;1m[Board] [0m  -------------------
[32;1m[Board] [0m8 ||[30;1mr[0m|[30;1mk[0m|[30;1mb[0m|[30;1mQ[0m|[30;1mK[0m|[30;1mb[0m|[30;1mk[0m|[30;1mr[0m|| 8
[32;1m[Board] [0m  -------------------
[32;1m[Board] [0m7 ||[30;1mp[0m|[30;1mp[0m|[30;1mp[0m|[30;1mp[0m| |[30;1mp[0m|[30;1mp[0m|[30;1mp[0m|| 7
[32;1m[Board] [0m  -------------------
[32;1m[Board] [0m6 ||[7;1m [0m| |[7;1m [0m| |[7;1m [0m| |[7;1m [0m| || 6
[32;1m[Board] [0m  -------------------
[32;1m[Board] [0m5 || |[7;1m [0m| |[7;1m [0m|[30;1mp[0m|[7;1m [0m| |[7;1m [0m|| 5
[32;1m[Board] [0m  -------------------
[32;1m[Board] [0m4 ||[7;1m [0m| |[7;1m [0m| |[7;1m [0m| |[7;1m [0m| || 4
[32;1m[Board] [0m  -------------------
[32;1m[Board] [0m3 || |[7;1m [0m| |[7;1m [0m|[0;1mp[0m|[7;1m [0m| |[7;1m [0m|| 3
[32;1m[Board] [0m  -------------------
[32;1m[Board] [0m2 ||[0;1mp[0m|[0;1mp[0m|[0;1mp[0m|[0;1mp[0m|[7;1m [0m|[0;1mp[0m|[0;1mp[0m|[0;1mp[0m|| 2
[32;1m[Board] [0m  -------------------
[32;1m[Board] [0m1 ||[0;1mr[0m|[0;1mk[0m|[0;1mb[0m|[0;1mQ[0m|[0;1mK[0m|[0;1mb[0m|[0;1mk[0m|[0;1mr[0m|| 1
[32;1m[Board] [0m  -------------------
[32;1m[Board] [0m    a b c d e f g h
[32;1m[Board] [0m
[32;1m[Referee] [0mThis is the turn of the White player...
Input file: championship/lizzie-iii-blueherring/history.csv
Output file: championship/lizzie-iii-blueherring/move.csv
Turn of: white
Succesful move
e2e3
8 | R N B Q K B N R 
7 | P P P P P P P P 
6 | _ _ _ _ _ _ _ _ 
5 | _ _ _ _ _ _ _ _ 
4 | _ _ _ _ _ _ _ _ 
3 | _ _ _ _ P _ _ _ 
2 | P P P P _ P P P 
1 | R N B Q K B N R 
-------------------
  | A B C D E F G H 

Turn of: black
Succesful move
e7e5
8 | R N B Q K B N R 
7 | P P P P _ P P P 
6 | _ _ _ _ _ _ _ _ 
5 | _ _ _ _ P _ _ _ 
4 | _ _ _ _ _ _ _ _ 
3 | _ _ _ _ P _ _ _ 
2 | P P P P _ P P P 
1 | R N B Q K B N R 
-------------------
  | A B C D E F G H 

We are playing as White
Move history:
e2e3
e7e5
8 | R N B Q K B N R 
7 | P P P P _ P P P 
6 | _ _ _ _ _ _ _ _ 
5 | _ _ _ _ P _ _ _ 
4 | _ _ _ _ _ _ _ _ 
3 | _ _ _ _ P _ _ _ 
2 | P P P P _ P P P 
1 | R N B Q K B N R 
-------------------
  | A B C D E F G H 

It is white's turn to play.
AI's move: d2d3
Move written: d2d3
[32;1m[Game] [0mPlayer's error code: 0
[32;1m[Game] [0mChecking move validity...
[32;1m[Board] [0mInitializing board...
[32;1m[Board] [0mLoading history file `championship/lizzie-iii-blueherring/history.csv`...
[32;1m[Board] [0mLoaded 2 move(s).
[32;1m[Board] [0mLoading move file `championship/lizzie-iii-blueherring/move.csv`...
[32;1m[Board] [0mWhite player is playing d2 to d3.
[32;1m[Board] [0m
[32;1m[Board] [0m    a b c d e f g h 
[32;1m[Board] [0m  -------------------
[32;1m[Board] [0m8 ||[30;1mr[0m|[30;1mk[0m|[30;1mb[0m|[30;1mQ[0m|[30;1mK[0m|[30;1mb[0m|[30;1mk[0m|[30;1mr[0m|| 8
[32;1m[Board] [0m  -------------------
[32;1m[Board] [0m7 ||[30;1mp[0m|[30;1mp[0m|[30;1mp[0m|[30;1mp[0m| |[30;1mp[0m|[30;1mp[0m|[30;1mp[0m|| 7
[32;1m[Board] [0m  -------------------
[32;1m[Board] [0m6 ||[7;1m [0m| |[7;1m [0m| |[7;1m [0m| |[7;1m [0m| || 6
[32;1m[Board] [0m  -------------------
[32;1m[Board] [0m5 || |[7;1m [0m| |[7;1m [0m|[30;1mp[0m|[7;1m [0m| |[7;1m [0m|| 5
[32;1m[Board] [0m  -------------------
[32;1m[Board] [0m4 ||[7;1m [0m| |[7;1m [0m| |[7;1m [0m| |[7;1m [0m| || 4
[32;1m[Board] [0m  -------------------
[32;1m[Board] [0m3 || |[7;1m [0m| |[0;1mp[0m|[0;1mp[0m|[7;1m [0m| |[7;1m [0m|| 3
[32;1m[Board] [0m  -------------------
[32;1m[Board] [0m2 ||[0;1mp[0m|[0;1mp[0m|[0;1mp[0m| |[7;1m [0m|[0;1mp[0m|[0;1mp[0m|[0;1mp[0m|| 2
[32;1m[Board] [0m  -------------------
[32;1m[Board] [0m1 ||[0;1mr[0m|[0;1mk[0m|[0;1mb[0m|[0;1mQ[0m|[0;1mK[0m|[0;1mb[0m|[0;1mk[0m|[0;1mr[0m|| 1
[32;1m[Board] [0m  -------------------
[32;1m[Board] [0m    a b c d e f g h
[32;1m[Board] [0m
[32;1m[Referee] [0mThis is the turn of the Black player...
[32;1m[Game] [0mPlayer's error code: 0
[32;1m[Game] [0mChecking move validity...
[32;1m[Board] [0mInitializing board...
[32;1m[Board] [0mLoading history file `championship/lizzie-iii-blueherring/history.csv`...
[32;1m[Board] [0mLoaded 3 move(s).
[32;1m[Board] [0mLoading move file `championship/lizzie-iii-blueherring/move.csv`...
[32;1m[Board] [0mBlack player is playing d8 to f6.
[32;1m[Board] [0m
[32;1m[Board] [0m    a b c d e f g h 
[32;1m[Board] [0m  -------------------
[32;1m[Board] [0m8 ||[30;1mr[0m|[30;1mk[0m|[30;1mb[0m| |[30;1mK[0m|[30;1mb[0m|[30;1mk[0m|[30;1mr[0m|| 8
[32;1m[Board] [0m  -------------------
[32;1m[Board] [0m7 ||[30;1mp[0m|[30;1mp[0m|[30;1mp[0m|[30;1mp[0m| |[30;1mp[0m|[30;1mp[0m|[30;1mp[0m|| 7
[32;1m[Board] [0m  -------------------
[32;1m[Board] [0m6 ||[7;1m [0m| |[7;1m [0m| |[7;1m [0m|[30;1mQ[0m|[7;1m [0m| || 6
[32;1m[Board] [0m  -------------------
[32;1m[Board] [0m5 || |[7;1m [0m| |[7;1m [0m|[30;1mp[0m|[7;1m [0m| |[7;1m [0m|| 5
[32;1m[Board] [0m  -------------------
[32;1m[Board] [0m4 ||[7;1m [0m| |[7;1m [0m| |[7;1m [0m| |[7;1m [0m| || 4
[32;1m[Board] [0m  -------------------
[32;1m[Board] [0m3 || |[7;1m [0m| |[0;1mp[0m|[0;1mp[0m|[7;1m [0m| |[7;1m [0m|| 3
[32;1m[Board] [0m  -------------------
[32;1m[Board] [0m2 ||[0;1mp[0m|[0;1mp[0m|[0;1mp[0m| |[7;1m [0m|[0;1mp[0m|[0;1mp[0m|[0;1mp[0m|| 2
[32;1m[Board] [0m  -------------------
[32;1m[Board] [0m1 ||[0;1mr[0m|[0;1mk[0m|[0;1mb[0m|[0;1mQ[0m|[0;1mK[0m|[0;1mb[0m|[0;1mk[0m|[0;1mr[0m|| 1
[32;1m[Board] [0m  -------------------
[32;1m[Board] [0m    a b c d e f g h
[32;1m[Board] [0m
[32;1m[Referee] [0mThis is the turn of the White player...
Input file: championship/lizzie-iii-blueherring/history.csv
Output file: championship/lizzie-iii-blueherring/move.csv
Turn of: white
Succesful move
e2e3
8 | R N B Q K B N R 
7 | P P P P P P P P 
6 | _ _ _ _ _ _ _ _ 
5 | _ _ _ _ _ _ _ _ 
4 | _ _ _ _ _ _ _ _ 
3 | _ _ _ _ P _ _ _ 
2 | P P P P _ P P P 
1 | R N B Q K B N R 
-------------------
  | A B C D E F G H 

Turn of: black
Succesful move
e7e5
8 | R N B Q K B N R 
7 | P P P P _ P P P 
6 | _ _ _ _ _ _ _ _ 
5 | _ _ _ _ P _ _ _ 
4 | _ _ _ _ _ _ _ _ 
3 | _ _ _ _ P _ _ _ 
2 | P P P P _ P P P 
1 | R N B Q K B N R 
-------------------
  | A B C D E F G H 

Turn of: white
Succesful move
d2d3
8 | R N B Q K B N R 
7 | P P P P _ P P P 
6 | _ _ _ _ _ _ _ _ 
5 | _ _ _ _ P _ _ _ 
4 | _ _ _ _ _ _ _ _ 
3 | _ _ _ P P _ _ _ 
2 | P P P _ _ P P P 
1 | R N B Q K B N R 
-------------------
  | A B C D E F G H 

Turn of: black
Succesful move
d8f6
8 | R N B _ K B N R 
7 | P P P P _ P P P 
6 | _ _ _ _ _ Q _ _ 
5 | _ _ _ _ P _ _ _ 
4 | _ _ _ _ _ _ _ _ 
3 | _ _ _ P P _ _ _ 
2 | P P P _ _ P P P 
1 | R N B Q K B N R 
-------------------
  | A B C D E F G H 

We are playing as White
Move history:
e2e3
e7e5
d2d3
d8f6
8 | R N B _ K B N R 
7 | P P P P _ P P P 
6 | _ _ _ _ _ Q _ _ 
5 | _ _ _ _ P _ _ _ 
4 | _ _ _ _ _ _ _ _ 
3 | _ _ _ P P _ _ _ 
2 | P P P _ _ P P P 
1 | R N B Q K B N R 
-------------------
  | A B C D E F G H 

It is white's turn to play.
AI's move: c1d2
Move written: c1d2
[32;1m[Game] [0mPlayer's error code: 0
[32;1m[Game] [0mChecking move validity...
[32;1m[Board] [0mInitializing board...
[32;1m[Board] [0mLoading history file `championship/lizzie-iii-blueherring/history.csv`...
[32;1m[Board] [0mLoaded 4 move(s).
[32;1m[Board] [0mLoading move file `championship/lizzie-iii-blueherring/move.csv`...
[32;1m[Board] [0mWhite player is playing c1 to d2.
[32;1m[Board] [0m
[32;1m[Board] [0m    a b c d e f g h 
[32;1m[Board] [0m  -------------------
[32;1m[Board] [0m8 ||[30;1mr[0m|[30;1mk[0m|[30;1mb[0m| |[30;1mK[0m|[30;1mb[0m|[30;1mk[0m|[30;1mr[0m|| 8
[32;1m[Board] [0m  -------------------
[32;1m[Board] [0m7 ||[30;1mp[0m|[30;1mp[0m|[30;1mp[0m|[30;1mp[0m| |[30;1mp[0m|[30;1mp[0m|[30;1mp[0m|| 7
[32;1m[Board] [0m  -------------------
[32;1m[Board] [0m6 ||[7;1m [0m| |[7;1m [0m| |[7;1m [0m|[30;1mQ[0m|[7;1m [0m| || 6
[32;1m[Board] [0m  -------------------
[32;1m[Board] [0m5 || |[7;1m [0m| |[7;1m [0m|[30;1mp[0m|[7;1m [0m| |[7;1m [0m|| 5
[32;1m[Board] [0m  -------------------
[32;1m[Board] [0m4 ||[7;1m [0m| |[7;1m [0m| |[7;1m [0m| |[7;1m [0m| || 4
[32;1m[Board] [0m  -------------------
[32;1m[Board] [0m3 || |[7;1m [0m| |[0;1mp[0m|[0;1mp[0m|[7;1m [0m| |[7;1m [0m|| 3
[32;1m[Board] [0m  -------------------
[32;1m[Board] [0m2 ||[0;1mp[0m|[0;1mp[0m|[0;1mp[0m|[0;1mb[0m|[7;1m [0m|[0;1mp[0m|[0;1mp[0m|[0;1mp[0m|| 2
[32;1m[Board] [0m  -------------------
[32;1m[Board] [0m1 ||[0;1mr[0m|[0;1mk[0m| |[0;1mQ[0m|[0;1mK[0m|[0;1mb[0m|[0;1mk[0m|[0;1mr[0m|| 1
[32;1m[Board] [0m  -------------------
[32;1m[Board] [0m    a b c d e f g h
[32;1m[Board] [0m
[32;1m[Referee] [0mThis is the turn of the Black player...
[32;1m[Game] [0mPlayer's error code: 0
[32;1m[Game] [0mChecking move validity...
[32;1m[Board] [0mInitializing board...
[32;1m[Board] [0mLoading history file `championship/lizzie-iii-blueherring/history.csv`...
[32;1m[Board] [0mLoaded 5 move(s).
[32;1m[Board] [0mLoading move file `championship/lizzie-iii-blueherring/move.csv`...
[32;1m[Board] [0mBlack player is playing b8 to c6.
[32;1m[Board] [0m
[32;1m[Board] [0m    a b c d e f g h 
[32;1m[Board] [0m  -------------------
[32;1m[Board] [0m8 ||[30;1mr[0m| |[30;1mb[0m| |[30;1mK[0m|[30;1mb[0m|[30;1mk[0m|[30;1mr[0m|| 8
[32;1m[Board] [0m  -------------------
[32;1m[Board] [0m7 ||[30;1mp[0m|[30;1mp[0m|[30;1mp[0m|[30;1mp[0m| |[30;1mp[0m|[30;1mp[0m|[30;1mp[0m|| 7
[32;1m[Board] [0m  -------------------
[32;1m[Board] [0m6 ||[7;1m [0m| |[30;1mk[0m| |[7;1m [0m|[30;1mQ[0m|[7;1m [0m| || 6
[32;1m[Board] [0m  -------------------
[32;1m[Board] [0m5 || |[7;1m [0m| |[7;1m [0m|[30;1mp[0m|[7;1m [0m| |[7;1m [0m|| 5
[32;1m[Board] [0m  -------------------
[32;1m[Board] [0m4 ||[7;1m [0m| |[7;1m [0m| |[7;1m [0m| |[7;1m [0m| || 4
[32;1m[Board] [0m  -------------------
[32;1m[Board] [0m3 || |[7;1m [0m| |[0;1mp[0m|[0;1mp[0m|[7;1m [0m| |[7;1m [0m|| 3
[32;1m[Board] [0m  -------------------
[32;1m[Board] [0m2 ||[0;1mp[0m|[0;1mp[0m|[0;1mp[0m|[0;1mb[0m|[7;1m [0m|[0;1mp[0m|[0;1mp[0m|[0;1mp[0m|| 2
[32;1m[Board] [0m  -------------------
[32;1m[Board] [0m1 ||[0;1mr[0m|[0;1mk[0m| |[0;1mQ[0m|[0;1mK[0m|[0;1mb[0m|[0;1mk[0m|[0;1mr[0m|| 1
[32;1m[Board] [0m  -------------------
[32;1m[Board] [0m    a b c d e f g h
[32;1m[Board] [0m
[32;1m[Referee] [0mThis is the turn of the White player...
Input file: championship/lizzie-iii-blueherring/history.csv
Output file: championship/lizzie-iii-blueherring/move.csv
Turn of: white
Succesful move
e2e3
8 | R N B Q K B N R 
7 | P P P P P P P P 
6 | _ _ _ _ _ _ _ _ 
5 | _ _ _ _ _ _ _ _ 
4 | _ _ _ _ _ _ _ _ 
3 | _ _ _ _ P _ _ _ 
2 | P P P P _ P P P 
1 | R N B Q K B N R 
-------------------
  | A B C D E F G H 

Turn of: black
Succesful move
e7e5
8 | R N B Q K B N R 
7 | P P P P _ P P P 
6 | _ _ _ _ _ _ _ _ 
5 | _ _ _ _ P _ _ _ 
4 | _ _ _ _ _ _ _ _ 
3 | _ _ _ _ P _ _ _ 
2 | P P P P _ P P P 
1 | R N B Q K B N R 
-------------------
  | A B C D E F G H 

Turn of: white
Succesful move
d2d3
8 | R N B Q K B N R 
7 | P P P P _ P P P 
6 | _ _ _ _ _ _ _ _ 
5 | _ _ _ _ P _ _ _ 
4 | _ _ _ _ _ _ _ _ 
3 | _ _ _ P P _ _ _ 
2 | P P P _ _ P P P 
1 | R N B Q K B N R 
-------------------
  | A B C D E F G H 

Turn of: black
Succesful move
d8f6
8 | R N B _ K B N R 
7 | P P P P _ P P P 
6 | _ _ _ _ _ Q _ _ 
5 | _ _ _ _ P _ _ _ 
4 | _ _ _ _ _ _ _ _ 
3 | _ _ _ P P _ _ _ 
2 | P P P _ _ P P P 
1 | R N B Q K B N R 
-------------------
  | A B C D E F G H 

Turn of: white
Succesful move
c1d2
8 | R N B _ K B N R 
7 | P P P P _ P P P 
6 | _ _ _ _ _ Q _ _ 
5 | _ _ _ _ P _ _ _ 
4 | _ _ _ _ _ _ _ _ 
3 | _ _ _ P P _ _ _ 
2 | P P P B _ P P P 
1 | R N _ Q K B N R 
-------------------
  | A B C D E F G H 

Turn of: black
Succesful move
b8c6
8 | R _ B _ K B N R 
7 | P P P P _ P P P 
6 | _ _ N _ _ Q _ _ 
5 | _ _ _ _ P _ _ _ 
4 | _ _ _ _ _ _ _ _ 
3 | _ _ _ P P _ _ _ 
2 | P P P B _ P P P 
1 | R N _ Q K B N R 
-------------------
  | A B C D E F G H 

We are playing as White
Move history:
e2e3
e7e5
d2d3
d8f6
c1d2
b8c6
8 | R _ B _ K B N R 
7 | P P P P _ P P P 
6 | _ _ N _ _ Q _ _ 
5 | _ _ _ _ P _ _ _ 
4 | _ _ _ _ _ _ _ _ 
3 | _ _ _ P P _ _ _ 
2 | P P P B _ P P P 
1 | R N _ Q K B N R 
-------------------
  | A B C D E F G H 

It is white's turn to play.
AI's move: d1c1
Move written: d1c1
[32;1m[Game] [0mPlayer's error code: 0
[32;1m[Game] [0mChecking move validity...
[32;1m[Board] [0mInitializing board...
[32;1m[Board] [0mLoading history file `championship/lizzie-iii-blueherring/history.csv`...
[32;1m[Board] [0mLoaded 6 move(s).
[32;1m[Board] [0mLoading move file `championship/lizzie-iii-blueherring/move.csv`...
[32;1m[Board] [0mWhite player is playing d1 to c1.
[32;1m[Board] [0m
[32;1m[Board] [0m    a b c d e f g h 
[32;1m[Board] [0m  -------------------
[32;1m[Board] [0m8 ||[30;1mr[0m| |[30;1mb[0m| |[30;1mK[0m|[30;1mb[0m|[30;1mk[0m|[30;1mr[0m|| 8
[32;1m[Board] [0m  -------------------
[32;1m[Board] [0m7 ||[30;1mp[0m|[30;1mp[0m|[30;1mp[0m|[30;1mp[0m| |[30;1mp[0m|[30;1mp[0m|[30;1mp[0m|| 7
[32;1m[Board] [0m  -------------------
[32;1m[Board] [0m6 ||[7;1m [0m| |[30;1mk[0m| |[7;1m [0m|[30;1mQ[0m|[7;1m [0m| || 6
[32;1m[Board] [0m  -------------------
[32;1m[Board] [0m5 || |[7;1m [0m| |[7;1m [0m|[30;1mp[0m|[7;1m [0m| |[7;1m [0m|| 5
[32;1m[Board] [0m  -------------------
[32;1m[Board] [0m4 ||[7;1m [0m| |[7;1m [0m| |[7;1m [0m| |[7;1m [0m| || 4
[32;1m[Board] [0m  -------------------
[32;1m[Board] [0m3 || |[7;1m [0m| |[0;1mp[0m|[0;1mp[0m|[7;1m [0m| |[7;1m [0m|| 3
[32;1m[Board] [0m  -------------------
[32;1m[Board] [0m2 ||[0;1mp[0m|[0;1mp[0m|[0;1mp[0m|[0;1mb[0m|[7;1m [0m|[0;1mp[0m|[0;1mp[0m|[0;1mp[0m|| 2
[32;1m[Board] [0m  -------------------
[32;1m[Board] [0m1 ||[0;1mr[0m|[0;1mk[0m|[0;1mQ[0m|[7;1m [0m|[0;1mK[0m|[0;1mb[0m|[0;1mk[0m|[0;1mr[0m|| 1
[32;1m[Board] [0m  -------------------
[32;1m[Board] [0m    a b c d e f g h
[32;1m[Board] [0m
[32;1m[Referee] [0mThis is the turn of the Black player...
[32;1m[Game] [0mPlayer's error code: 0
[32;1m[Game] [0mChecking move validity...
[32;1m[Board] [0mInitializing board...
[32;1m[Board] [0mLoading history file `championship/lizzie-iii-blueherring/history.csv`...
[32;1m[Board] [0mLoaded 7 move(s).
[32;1m[Board] [0mLoading move file `championship/lizzie-iii-blueherring/move.csv`...
[32;1m[Board] [0mBlack player is playing g8 to e7.
[32;1m[Board] [0m
[32;1m[Board] [0m    a b c d e f g h 
[32;1m[Board] [0m  -------------------
[32;1m[Board] [0m8 ||[30;1mr[0m| |[30;1mb[0m| |[30;1mK[0m|[30;1mb[0m|[7;1m [0m|[30;1mr[0m|| 8
[32;1m[Board] [0m  -------------------
[32;1m[Board] [0m7 ||[30;1mp[0m|[30;1mp[0m|[30;1mp[0m|[30;1mp[0m|[30;1mk[0m|[30;1mp[0m|[30;1mp[0m|[30;1mp[0m|| 7
[32;1m[Board] [0m  -------------------
[32;1m[Board] [0m6 ||[7;1m [0m| |[30;1mk[0m| |[7;1m [0m|[30;1mQ[0m|[7;1m [0m| || 6
[32;1m[Board] [0m  -------------------
[32;1m[Board] [0m5 || |[7;1m [0m| |[7;1m [0m|[30;1mp[0m|[7;1m [0m| |[7;1m [0m|| 5
[32;1m[Board] [0m  -------------------
[32;1m[Board] [0m4 ||[7;1m [0m| |[7;1m [0m| |[7;1m [0m| |[7;1m [0m| || 4
[32;1m[Board] [0m  -------------------
[32;1m[Board] [0m3 || |[7;1m [0m| |[0;1mp[0m|[0;1mp[0m|[7;1m [0m| |[7;1m [0m|| 3
[32;1m[Board] [0m  -------------------
[32;1m[Board] [0m2 ||[0;1mp[0m|[0;1mp[0m|[0;1mp[0m|[0;1mb[0m|[7;1m [0m|[0;1mp[0m|[0;1mp[0m|[0;1mp[0m|| 2
[32;1m[Board] [0m  -------------------
[32;1m[Board] [0m1 ||[0;1mr[0m|[0;1mk[0m|[0;1mQ[0m|[7;1m [0m|[0;1mK[0m|[0;1mb[0m|[0;1mk[0m|[0;1mr[0m|| 1
[32;1m[Board] [0m  -------------------
[32;1m[Board] [0m    a b c d e f g h
[32;1m[Board] [0m
[32;1m[Referee] [0mThis is the turn of the White player...
Input file: championship/lizzie-iii-blueherring/history.csv
Output file: championship/lizzie-iii-blueherring/move.csv
Turn of: white
Succesful move
e2e3
8 | R N B Q K B N R 
7 | P P P P P P P P 
6 | _ _ _ _ _ _ _ _ 
5 | _ _ _ _ _ _ _ _ 
4 | _ _ _ _ _ _ _ _ 
3 | _ _ _ _ P _ _ _ 
2 | P P P P _ P P P 
1 | R N B Q K B N R 
-------------------
  | A B C D E F G H 

Turn of: black
Succesful move
e7e5
8 | R N B Q K B N R 
7 | P P P P _ P P P 
6 | _ _ _ _ _ _ _ _ 
5 | _ _ _ _ P _ _ _ 
4 | _ _ _ _ _ _ _ _ 
3 | _ _ _ _ P _ _ _ 
2 | P P P P _ P P P 
1 | R N B Q K B N R 
-------------------
  | A B C D E F G H 

Turn of: white
Succesful move
d2d3
8 | R N B Q K B N R 
7 | P P P P _ P P P 
6 | _ _ _ _ _ _ _ _ 
5 | _ _ _ _ P _ _ _ 
4 | _ _ _ _ _ _ _ _ 
3 | _ _ _ P P _ _ _ 
2 | P P P _ _ P P P 
1 | R N B Q K B N R 
-------------------
  | A B C D E F G H 

Turn of: black
Succesful move
d8f6
8 | R N B _ K B N R 
7 | P P P P _ P P P 
6 | _ _ _ _ _ Q _ _ 
5 | _ _ _ _ P _ _ _ 
4 | _ _ _ _ _ _ _ _ 
3 | _ _ _ P P _ _ _ 
2 | P P P _ _ P P P 
1 | R N B Q K B N R 
-------------------
  | A B C D E F G H 

Turn of: white
Succesful move
c1d2
8 | R N B _ K B N R 
7 | P P P P _ P P P 
6 | _ _ _ _ _ Q _ _ 
5 | _ _ _ _ P _ _ _ 
4 | _ _ _ _ _ _ _ _ 
3 | _ _ _ P P _ _ _ 
2 | P P P B _ P P P 
1 | R N _ Q K B N R 
-------------------
  | A B C D E F G H 

Turn of: black
Succesful move
b8c6
8 | R _ B _ K B N R 
7 | P P P P _ P P P 
6 | _ _ N _ _ Q _ _ 
5 | _ _ _ _ P _ _ _ 
4 | _ _ _ _ _ _ _ _ 
3 | _ _ _ P P _ _ _ 
2 | P P P B _ P P P 
1 | R N _ Q K B N R 
-------------------
  | A B C D E F G H 

Turn of: white
Succesful move
d1c1
8 | R _ B _ K B N R 
7 | P P P P _ P P P 
6 | _ _ N _ _ Q _ _ 
5 | _ _ _ _ P _ _ _ 
4 | _ _ _ _ _ _ _ _ 
3 | _ _ _ P P _ _ _ 
2 | P P P B _ P P P 
1 | R N Q _ K B N R 
-------------------
  | A B C D E F G H 

Turn of: black
Succesful move
g8e7
8 | R _ B _ K B _ R 
7 | P P P P N P P P 
6 | _ _ N _ _ Q _ _ 
5 | _ _ _ _ P _ _ _ 
4 | _ _ _ _ _ _ _ _ 
3 | _ _ _ P P _ _ _ 
2 | P P P B _ P P P 
1 | R N Q _ K B N R 
-------------------
  | A B C D E F G H 

We are playing as White
Move history:
e2e3
e7e5
d2d3
d8f6
c1d2
b8c6
d1c1
g8e7
8 | R _ B _ K B _ R 
7 | P P P P N P P P 
6 | _ _ N _ _ Q _ _ 
5 | _ _ _ _ P _ _ _ 
4 | _ _ _ _ _ _ _ _ 
3 | _ _ _ P P _ _ _ 
2 | P P P B _ P P P 
1 | R N Q _ K B N R 
-------------------
  | A B C D E F G H 

It is white's turn to play.
AI's move: f2f4
Move written: f2f4
[32;1m[Game] [0mPlayer's error code: 0
[32;1m[Game] [0mChecking move validity...
[32;1m[Board] [0mInitializing board...
[32;1m[Board] [0mLoading history file `championship/lizzie-iii-blueherring/history.csv`...
[32;1m[Board] [0mLoaded 8 move(s).
[32;1m[Board] [0mLoading move file `championship/lizzie-iii-blueherring/move.csv`...
[32;1m[Board] [0mWhite player is playing f2 to f4.
[32;1m[Board] [0m
[32;1m[Board] [0m    a b c d e f g h 
[32;1m[Board] [0m  -------------------
[32;1m[Board] [0m8 ||[30;1mr[0m| |[30;1mb[0m| |[30;1mK[0m|[30;1mb[0m|[7;1m [0m|[30;1mr[0m|| 8
[32;1m[Board] [0m  -------------------
[32;1m[Board] [0m7 ||[30;1mp[0m|[30;1mp[0m|[30;1mp[0m|[30;1mp[0m|[30;1mk[0m|[30;1mp[0m|[30;1mp[0m|[30;1mp[0m|| 7
[32;1m[Board] [0m  -------------------
[32;1m[Board] [0m6 ||[7;1m [0m| |[30;1mk[0m| |[7;1m [0m|[30;1mQ[0m|[7;1m [0m| || 6
[32;1m[Board] [0m  -------------------
[32;1m[Board] [0m5 || |[7;1m [0m| |[7;1m [0m|[30;1mp[0m|[7;1m [0m| |[7;1m [0m|| 5
[32;1m[Board] [0m  -------------------
[32;1m[Board] [0m4 ||[7;1m [0m| |[7;1m [0m| |[7;1m [0m|[0;1mp[0m|[7;1m [0m| || 4
[32;1m[Board] [0m  -------------------
[32;1m[Board] [0m3 || |[7;1m [0m| |[0;1mp[0m|[0;1mp[0m|[7;1m [0m| |[7;1m [0m|| 3
[32;1m[Board] [0m  -------------------
[32;1m[Board] [0m2 ||[0;1mp[0m|[0;1mp[0m|[0;1mp[0m|[0;1mb[0m|[7;1m [0m| |[0;1mp[0m|[0;1mp[0m|| 2
[32;1m[Board] [0m  -------------------
[32;1m[Board] [0m1 ||[0;1mr[0m|[0;1mk[0m|[0;1mQ[0m|[7;1m [0m|[0;1mK[0m|[0;1mb[0m|[0;1mk[0m|[0;1mr[0m|| 1
[32;1m[Board] [0m  -------------------
[32;1m[Board] [0m    a b c d e f g h
[32;1m[Board] [0m
[32;1m[Referee] [0mThis is the turn of the Black player...
[32;1m[Game] [0mPlayer's error code: 0
[32;1m[Game] [0mChecking move validity...
[32;1m[Board] [0mInitializing board...
[32;1m[Board] [0mLoading history file `championship/lizzie-iii-blueherring/history.csv`...
[32;1m[Board] [0mLoaded 9 move(s).
[32;1m[Board] [0mLoading move file `championship/lizzie-iii-blueherring/move.csv`...
[32;1m[Board] [0mBlack player is playing e5 to f4.
[32;1m[Board] [0m[5;1mBlack Pawn is taking White Pawn.[0m
[32;1m[Board] [0m
[32;1m[Board] [0m    a b c d e f g h 
[32;1m[Board] [0m  -------------------
[32;1m[Board] [0m8 ||[30;1mr[0m| |[30;1mb[0m| |[30;1mK[0m|[30;1mb[0m|[7;1m [0m|[30;1mr[0m|| 8
[32;1m[Board] [0m  -------------------
[32;1m[Board] [0m7 ||[30;1mp[0m|[30;1mp[0m|[30;1mp[0m|[30;1mp[0m|[30;1mk[0m|[30;1mp[0m|[30;1mp[0m|[30;1mp[0m|| 7
[32;1m[Board] [0m  -------------------
[32;1m[Board] [0m6 ||[7;1m [0m| |[30;1mk[0m| |[7;1m [0m|[30;1mQ[0m|[7;1m [0m| || 6
[32;1m[Board] [0m  -------------------
[32;1m[Board] [0m5 || |[7;1m [0m| |[7;1m [0m| |[7;1m [0m| |[7;1m [0m|| 5
[32;1m[Board] [0m  -------------------
[32;1m[Board] [0m4 ||[7;1m [0m| |[7;1m [0m| |[7;1m [0m|[30;1mp[0m|[7;1m [0m| || 4
[32;1m[Board] [0m  -------------------
[32;1m[Board] [0m3 || |[7;1m [0m| |[0;1mp[0m|[0;1mp[0m|[7;1m [0m| |[7;1m [0m|| 3
[32;1m[Board] [0m  -------------------
[32;1m[Board] [0m2 ||[0;1mp[0m|[0;1mp[0m|[0;1mp[0m|[0;1mb[0m|[7;1m [0m| |[0;1mp[0m|[0;1mp[0m|| 2
[32;1m[Board] [0m  -------------------
[32;1m[Board] [0m1 ||[0;1mr[0m|[0;1mk[0m|[0;1mQ[0m|[7;1m [0m|[0;1mK[0m|[0;1mb[0m|[0;1mk[0m|[0;1mr[0m|| 1
[32;1m[Board] [0m  -------------------
[32;1m[Board] [0m    a b c d e f g h
[32;1m[Board] [0m
[32;1m[Referee] [0mThis is the turn of the White player...
Input file: championship/lizzie-iii-blueherring/history.csv
Output file: championship/lizzie-iii-blueherring/move.csv
Turn of: white
Succesful move
e2e3
8 | R N B Q K B N R 
7 | P P P P P P P P 
6 | _ _ _ _ _ _ _ _ 
5 | _ _ _ _ _ _ _ _ 
4 | _ _ _ _ _ _ _ _ 
3 | _ _ _ _ P _ _ _ 
2 | P P P P _ P P P 
1 | R N B Q K B N R 
-------------------
  | A B C D E F G H 

Turn of: black
Succesful move
e7e5
8 | R N B Q K B N R 
7 | P P P P _ P P P 
6 | _ _ _ _ _ _ _ _ 
5 | _ _ _ _ P _ _ _ 
4 | _ _ _ _ _ _ _ _ 
3 | _ _ _ _ P _ _ _ 
2 | P P P P _ P P P 
1 | R N B Q K B N R 
-------------------
  | A B C D E F G H 

Turn of: white
Succesful move
d2d3
8 | R N B Q K B N R 
7 | P P P P _ P P P 
6 | _ _ _ _ _ _ _ _ 
5 | _ _ _ _ P _ _ _ 
4 | _ _ _ _ _ _ _ _ 
3 | _ _ _ P P _ _ _ 
2 | P P P _ _ P P P 
1 | R N B Q K B N R 
-------------------
  | A B C D E F G H 

Turn of: black
Succesful move
d8f6
8 | R N B _ K B N R 
7 | P P P P _ P P P 
6 | _ _ _ _ _ Q _ _ 
5 | _ _ _ _ P _ _ _ 
4 | _ _ _ _ _ _ _ _ 
3 | _ _ _ P P _ _ _ 
2 | P P P _ _ P P P 
1 | R N B Q K B N R 
-------------------
  | A B C D E F G H 

Turn of: white
Succesful move
c1d2
8 | R N B _ K B N R 
7 | P P P P _ P P P 
6 | _ _ _ _ _ Q _ _ 
5 | _ _ _ _ P _ _ _ 
4 | _ _ _ _ _ _ _ _ 
3 | _ _ _ P P _ _ _ 
2 | P P P B _ P P P 
1 | R N _ Q K B N R 
-------------------
  | A B C D E F G H 

Turn of: black
Succesful move
b8c6
8 | R _ B _ K B N R 
7 | P P P P _ P P P 
6 | _ _ N _ _ Q _ _ 
5 | _ _ _ _ P _ _ _ 
4 | _ _ _ _ _ _ _ _ 
3 | _ _ _ P P _ _ _ 
2 | P P P B _ P P P 
1 | R N _ Q K B N R 
-------------------
  | A B C D E F G H 

Turn of: white
Succesful move
d1c1
8 | R _ B _ K B N R 
7 | P P P P _ P P P 
6 | _ _ N _ _ Q _ _ 
5 | _ _ _ _ P _ _ _ 
4 | _ _ _ _ _ _ _ _ 
3 | _ _ _ P P _ _ _ 
2 | P P P B _ P P P 
1 | R N Q _ K B N R 
-------------------
  | A B C D E F G H 

Turn of: black
Succesful move
g8e7
8 | R _ B _ K B _ R 
7 | P P P P N P P P 
6 | _ _ N _ _ Q _ _ 
5 | _ _ _ _ P _ _ _ 
4 | _ _ _ _ _ _ _ _ 
3 | _ _ _ P P _ _ _ 
2 | P P P B _ P P P 
1 | R N Q _ K B N R 
-------------------
  | A B C D E F G H 

Turn of: white
Succesful move
f2f4
8 | R _ B _ K B _ R 
7 | P P P P N P P P 
6 | _ _ N _ _ Q _ _ 
5 | _ _ _ _ P _ _ _ 
4 | _ _ _ _ _ P _ _ 
3 | _ _ _ P P _ _ _ 
2 | P P P B _ _ P P 
1 | R N Q _ K B N R 
-------------------
  | A B C D E F G H 

Turn of: black
Succesful move
e5f4
8 | R _ B _ K B _ R 
7 | P P P P N P P P 
6 | _ _ N _ _ Q _ _ 
5 | _ _ _ _ _ _ _ _ 
4 | _ _ _ _ _ P _ _ 
3 | _ _ _ P P _ _ _ 
2 | P P P B _ _ P P 
1 | R N Q _ K B N R 
-------------------
  | A B C D E F G H 

We are playing as White
Move history:
e2e3
e7e5
d2d3
d8f6
c1d2
b8c6
d1c1
g8e7
f2f4
e5f4
8 | R _ B _ K B _ R 
7 | P P P P N P P P 
6 | _ _ N _ _ Q _ _ 
5 | _ _ _ _ _ _ _ _ 
4 | _ _ _ _ _ P _ _ 
3 | _ _ _ P P _ _ _ 
2 | P P P B _ _ P P 
1 | R N Q _ K B N R 
-------------------
  | A B C D E F G H 

It is white's turn to play.
AI's move: a2a3
Move written: a2a3
[32;1m[Game] [0mPlayer's error code: 0
[32;1m[Game] [0mChecking move validity...
[32;1m[Board] [0mInitializing board...
[32;1m[Board] [0mLoading history file `championship/lizzie-iii-blueherring/history.csv`...
[32;1m[Board] [0mLoaded 10 move(s).
[32;1m[Board] [0mLoading move file `championship/lizzie-iii-blueherring/move.csv`...
[32;1m[Board] [0mWhite player is playing a2 to a3.
[32;1m[Board] [0m
[32;1m[Board] [0m    a b c d e f g h 
[32;1m[Board] [0m  -------------------
[32;1m[Board] [0m8 ||[30;1mr[0m| |[30;1mb[0m| |[30;1mK[0m|[30;1mb[0m|[7;1m [0m|[30;1mr[0m|| 8
[32;1m[Board] [0m  -------------------
[32;1m[Board] [0m7 ||[30;1mp[0m|[30;1mp[0m|[30;1mp[0m|[30;1mp[0m|[30;1mk[0m|[30;1mp[0m|[30;1mp[0m|[30;1mp[0m|| 7
[32;1m[Board] [0m  -------------------
[32;1m[Board] [0m6 ||[7;1m [0m| |[30;1mk[0m| |[7;1m [0m|[30;1mQ[0m|[7;1m [0m| || 6
[32;1m[Board] [0m  -------------------
[32;1m[Board] [0m5 || |[7;1m [0m| |[7;1m [0m| |[7;1m [0m| |[7;1m [0m|| 5
[32;1m[Board] [0m  -------------------
[32;1m[Board] [0m4 ||[7;1m [0m| |[7;1m [0m| |[7;1m [0m|[30;1mp[0m|[7;1m [0m| || 4
[32;1m[Board] [0m  -------------------
[32;1m[Board] [0m3 ||[0;1mp[0m|[7;1m [0m| |[0;1mp[0m|[0;1mp[0m|[7;1m [0m| |[7;1m [0m|| 3
[32;1m[Board] [0m  -------------------
[32;1m[Board] [0m2 ||[7;1m [0m|[0;1mp[0m|[0;1mp[0m|[0;1mb[0m|[7;1m [0m| |[0;1mp[0m|[0;1mp[0m|| 2
[32;1m[Board] [0m  -------------------
[32;1m[Board] [0m1 ||[0;1mr[0m|[0;1mk[0m|[0;1mQ[0m|[7;1m [0m|[0;1mK[0m|[0;1mb[0m|[0;1mk[0m|[0;1mr[0m|| 1
[32;1m[Board] [0m  -------------------
[32;1m[Board] [0m    a b c d e f g h
[32;1m[Board] [0m
[32;1m[Referee] [0mThis is the turn of the Black player...
[32;1m[Game] [0mPlayer's error code: 0
[32;1m[Game] [0mChecking move validity...
[32;1m[Board] [0mInitializing board...
[32;1m[Board] [0mLoading history file `championship/lizzie-iii-blueherring/history.csv`...
[32;1m[Board] [0mLoaded 11 move(s).
[32;1m[Board] [0mLoading move file `championship/lizzie-iii-blueherring/move.csv`...
[32;1m[Board] [0mBlack player is playing f4 to e3.
[32;1m[Board] [0m[5;1mBlack Pawn is taking White Pawn.[0m
[32;1m[Board] [0m
[32;1m[Board] [0m    a b c d e f g h 
[32;1m[Board] [0m  -------------------
[32;1m[Board] [0m8 ||[30;1mr[0m| |[30;1mb[0m| |[30;1mK[0m|[30;1mb[0m|[7;1m [0m|[30;1mr[0m|| 8
[32;1m[Board] [0m  -------------------
[32;1m[Board] [0m7 ||[30;1mp[0m|[30;1mp[0m|[30;1mp[0m|[30;1mp[0m|[30;1mk[0m|[30;1mp[0m|[30;1mp[0m|[30;1mp[0m|| 7
[32;1m[Board] [0m  -------------------
[32;1m[Board] [0m6 ||[7;1m [0m| |[30;1mk[0m| |[7;1m [0m|[30;1mQ[0m|[7;1m [0m| || 6
[32;1m[Board] [0m  -------------------
[32;1m[Board] [0m5 || |[7;1m [0m| |[7;1m [0m| |[7;1m [0m| |[7;1m [0m|| 5
[32;1m[Board] [0m  -------------------
[32;1m[Board] [0m4 ||[7;1m [0m| |[7;1m [0m| |[7;1m [0m| |[7;1m [0m| || 4
[32;1m[Board] [0m  -------------------
[32;1m[Board] [0m3 ||[0;1mp[0m|[7;1m [0m| |[0;1mp[0m|[30;1mp[0m|[7;1m [0m| |[7;1m [0m|| 3
[32;1m[Board] [0m  -------------------
[32;1m[Board] [0m2 ||[7;1m [0m|[0;1mp[0m|[0;1mp[0m|[0;1mb[0m|[7;1m [0m| |[0;1mp[0m|[0;1mp[0m|| 2
[32;1m[Board] [0m  -------------------
[32;1m[Board] [0m1 ||[0;1mr[0m|[0;1mk[0m|[0;1mQ[0m|[7;1m [0m|[0;1mK[0m|[0;1mb[0m|[0;1mk[0m|[0;1mr[0m|| 1
[32;1m[Board] [0m  -------------------
[32;1m[Board] [0m    a b c d e f g h
[32;1m[Board] [0m
[32;1m[Referee] [0mThis is the turn of the White player...
Input file: championship/lizzie-iii-blueherring/history.csv
Output file: championship/lizzie-iii-blueherring/move.csv
Turn of: white
Succesful move
e2e3
8 | R N B Q K B N R 
7 | P P P P P P P P 
6 | _ _ _ _ _ _ _ _ 
5 | _ _ _ _ _ _ _ _ 
4 | _ _ _ _ _ _ _ _ 
3 | _ _ _ _ P _ _ _ 
2 | P P P P _ P P P 
1 | R N B Q K B N R 
-------------------
  | A B C D E F G H 

Turn of: black
Succesful move
e7e5
8 | R N B Q K B N R 
7 | P P P P _ P P P 
6 | _ _ _ _ _ _ _ _ 
5 | _ _ _ _ P _ _ _ 
4 | _ _ _ _ _ _ _ _ 
3 | _ _ _ _ P _ _ _ 
2 | P P P P _ P P P 
1 | R N B Q K B N R 
-------------------
  | A B C D E F G H 

Turn of: white
Succesful move
d2d3
8 | R N B Q K B N R 
7 | P P P P _ P P P 
6 | _ _ _ _ _ _ _ _ 
5 | _ _ _ _ P _ _ _ 
4 | _ _ _ _ _ _ _ _ 
3 | _ _ _ P P _ _ _ 
2 | P P P _ _ P P P 
1 | R N B Q K B N R 
-------------------
  | A B C D E F G H 

Turn of: black
Succesful move
d8f6
8 | R N B _ K B N R 
7 | P P P P _ P P P 
6 | _ _ _ _ _ Q _ _ 
5 | _ _ _ _ P _ _ _ 
4 | _ _ _ _ _ _ _ _ 
3 | _ _ _ P P _ _ _ 
2 | P P P _ _ P P P 
1 | R N B Q K B N R 
-------------------
  | A B C D E F G H 

Turn of: white
Succesful move
c1d2
8 | R N B _ K B N R 
7 | P P P P _ P P P 
6 | _ _ _ _ _ Q _ _ 
5 | _ _ _ _ P _ _ _ 
4 | _ _ _ _ _ _ _ _ 
3 | _ _ _ P P _ _ _ 
2 | P P P B _ P P P 
1 | R N _ Q K B N R 
-------------------
  | A B C D E F G H 

Turn of: black
Succesful move
b8c6
8 | R _ B _ K B N R 
7 | P P P P _ P P P 
6 | _ _ N _ _ Q _ _ 
5 | _ _ _ _ P _ _ _ 
4 | _ _ _ _ _ _ _ _ 
3 | _ _ _ P P _ _ _ 
2 | P P P B _ P P P 
1 | R N _ Q K B N R 
-------------------
  | A B C D E F G H 

Turn of: white
Succesful move
d1c1
8 | R _ B _ K B N R 
7 | P P P P _ P P P 
6 | _ _ N _ _ Q _ _ 
5 | _ _ _ _ P _ _ _ 
4 | _ _ _ _ _ _ _ _ 
3 | _ _ _ P P _ _ _ 
2 | P P P B _ P P P 
1 | R N Q _ K B N R 
-------------------
  | A B C D E F G H 

Turn of: black
Succesful move
g8e7
8 | R _ B _ K B _ R 
7 | P P P P N P P P 
6 | _ _ N _ _ Q _ _ 
5 | _ _ _ _ P _ _ _ 
4 | _ _ _ _ _ _ _ _ 
3 | _ _ _ P P _ _ _ 
2 | P P P B _ P P P 
1 | R N Q _ K B N R 
-------------------
  | A B C D E F G H 

Turn of: white
Succesful move
f2f4
8 | R _ B _ K B _ R 
7 | P P P P N P P P 
6 | _ _ N _ _ Q _ _ 
5 | _ _ _ _ P _ _ _ 
4 | _ _ _ _ _ P _ _ 
3 | _ _ _ P P _ _ _ 
2 | P P P B _ _ P P 
1 | R N Q _ K B N R 
-------------------
  | A B C D E F G H 

Turn of: black
Succesful move
e5f4
8 | R _ B _ K B _ R 
7 | P P P P N P P P 
6 | _ _ N _ _ Q _ _ 
5 | _ _ _ _ _ _ _ _ 
4 | _ _ _ _ _ P _ _ 
3 | _ _ _ P P _ _ _ 
2 | P P P B _ _ P P 
1 | R N Q _ K B N R 
-------------------
  | A B C D E F G H 

Turn of: white
Succesful move
a2a3
8 | R _ B _ K B _ R 
7 | P P P P N P P P 
6 | _ _ N _ _ Q _ _ 
5 | _ _ _ _ _ _ _ _ 
4 | _ _ _ _ _ P _ _ 
3 | P _ _ P P _ _ _ 
2 | _ P P B _ _ P P 
1 | R N Q _ K B N R 
-------------------
  | A B C D E F G H 

Turn of: black
Succesful move
f4e3
8 | R _ B _ K B _ R 
7 | P P P P N P P P 
6 | _ _ N _ _ Q _ _ 
5 | _ _ _ _ _ _ _ _ 
4 | _ _ _ _ _ _ _ _ 
3 | P _ _ P P _ _ _ 
2 | _ P P B _ _ P P 
1 | R N Q _ K B N R 
-------------------
  | A B C D E F G H 

We are playing as White
Move history:
e2e3
e7e5
d2d3
d8f6
c1d2
b8c6
d1c1
g8e7
f2f4
e5f4
a2a3
f4e3
8 | R _ B _ K B _ R 
7 | P P P P N P P P 
6 | _ _ N _ _ Q _ _ 
5 | _ _ _ _ _ _ _ _ 
4 | _ _ _ _ _ _ _ _ 
3 | P _ _ P P _ _ _ 
2 | _ P P B _ _ P P 
1 | R N Q _ K B N R 
-------------------
  | A B C D E F G H 

It is white's turn to play.
AI's move: g2g3
Move written: g2g3
[32;1m[Game] [0mPlayer's error code: 0
[32;1m[Game] [0mChecking move validity...
[32;1m[Board] [0mInitializing board...
[32;1m[Board] [0mLoading history file `championship/lizzie-iii-blueherring/history.csv`...
[32;1m[Board] [0mLoaded 12 move(s).
[32;1m[Board] [0mLoading move file `championship/lizzie-iii-blueherring/move.csv`...
[32;1m[Board] [0mWhite player is playing g2 to g3.
[32;1m[Board] [0m
[32;1m[Board] [0m    a b c d e f g h 
[32;1m[Board] [0m  -------------------
[32;1m[Board] [0m8 ||[30;1mr[0m| |[30;1mb[0m| |[30;1mK[0m|[30;1mb[0m|[7;1m [0m|[30;1mr[0m|| 8
[32;1m[Board] [0m  -------------------
[32;1m[Board] [0m7 ||[30;1mp[0m|[30;1mp[0m|[30;1mp[0m|[30;1mp[0m|[30;1mk[0m|[30;1mp[0m|[30;1mp[0m|[30;1mp[0m|| 7
[32;1m[Board] [0m  -------------------
[32;1m[Board] [0m6 ||[7;1m [0m| |[30;1mk[0m| |[7;1m [0m|[30;1mQ[0m|[7;1m [0m| || 6
[32;1m[Board] [0m  -------------------
[32;1m[Board] [0m5 || |[7;1m [0m| |[7;1m [0m| |[7;1m [0m| |[7;1m [0m|| 5
[32;1m[Board] [0m  -------------------
[32;1m[Board] [0m4 ||[7;1m [0m| |[7;1m [0m| |[7;1m [0m| |[7;1m [0m| || 4
[32;1m[Board] [0m  -------------------
[32;1m[Board] [0m3 ||[0;1mp[0m|[7;1m [0m| |[0;1mp[0m|[30;1mp[0m|[7;1m [0m|[0;1mp[0m|[7;1m [0m|| 3
[32;1m[Board] [0m  -------------------
[32;1m[Board] [0m2 ||[7;1m [0m|[0;1mp[0m|[0;1mp[0m|[0;1mb[0m|[7;1m [0m| |[7;1m [0m|[0;1mp[0m|| 2
[32;1m[Board] [0m  -------------------
[32;1m[Board] [0m1 ||[0;1mr[0m|[0;1mk[0m|[0;1mQ[0m|[7;1m [0m|[0;1mK[0m|[0;1mb[0m|[0;1mk[0m|[0;1mr[0m|| 1
[32;1m[Board] [0m  -------------------
[32;1m[Board] [0m    a b c d e f g h
[32;1m[Board] [0m
[32;1m[Referee] [0mThis is the turn of the Black player...
[32;1m[Game] [0mPlayer's error code: 0
[32;1m[Game] [0mChecking move validity...
[32;1m[Board] [0mInitializing board...
[32;1m[Board] [0mLoading history file `championship/lizzie-iii-blueherring/history.csv`...
[32;1m[Board] [0mLoaded 13 move(s).
[32;1m[Board] [0mLoading move file `championship/lizzie-iii-blueherring/move.csv`...
[32;1m[Board] [0mBlack player is playing e3 to d2.
[32;1m[Board] [0m[5;1mBlack Pawn is taking White Bishop.[0m
[32;1m[Board] [0m
[32;1m[Board] [0m    a b c d e f g h 
[32;1m[Board] [0m  -------------------
[32;1m[Board] [0m8 ||[30;1mr[0m| |[30;1mb[0m| |[30;1mK[0m|[30;1mb[0m|[7;1m [0m|[30;1mr[0m|| 8
[32;1m[Board] [0m  -------------------
[32;1m[Board] [0m7 ||[30;1mp[0m|[30;1mp[0m|[30;1mp[0m|[30;1mp[0m|[30;1mk[0m|[30;1mp[0m|[30;1mp[0m|[30;1mp[0m|| 7
[32;1m[Board] [0m  -------------------
[32;1m[Board] [0m6 ||[7;1m [0m| |[30;1mk[0m| |[7;1m [0m|[30;1mQ[0m|[7;1m [0m| || 6
[32;1m[Board] [0m  -------------------
[32;1m[Board] [0m5 || |[7;1m [0m| |[7;1m [0m| |[7;1m [0m| |[7;1m [0m|| 5
[32;1m[Board] [0m  -------------------
[32;1m[Board] [0m4 ||[7;1m [0m| |[7;1m [0m| |[7;1m [0m| |[7;1m [0m| || 4
[32;1m[Board] [0m  -------------------
[32;1m[Board] [0m3 ||[0;1mp[0m|[7;1m [0m| |[0;1mp[0m| |[7;1m [0m|[0;1mp[0m|[7;1m [0m|| 3
[32;1m[Board] [0m  -------------------
[32;1m[Board] [0m2 ||[7;1m [0m|[0;1mp[0m|[0;1mp[0m|[30;1mp[0m|[7;1m [0m| |[7;1m [0m|[0;1mp[0m|| 2
[32;1m[Board] [0m  -------------------
[32;1m[Board] [0m1 ||[0;1mr[0m|[0;1mk[0m|[0;1mQ[0m|[7;1m [0m|[0;1mK[0m|[0;1mb[0m|[0;1mk[0m|[0;1mr[0m|| 1
[32;1m[Board] [0m  -------------------
[32;1m[Board] [0m    a b c d e f g h
[32;1m[Board] [0m
[32;1m[Referee] [0mThis is the turn of the White player...
[32;1m[Board] [0m[33;1m[WARNING][0m [5;1mWhite King in check![0m
[32;1m[Board] [0m[33;1m[WARNING][0m    Threatened by Black Pawn (d2)
Input file: championship/lizzie-iii-blueherring/history.csv
Output file: championship/lizzie-iii-blueherring/move.csv
Turn of: white
Succesful move
e2e3
8 | R N B Q K B N R 
7 | P P P P P P P P 
6 | _ _ _ _ _ _ _ _ 
5 | _ _ _ _ _ _ _ _ 
4 | _ _ _ _ _ _ _ _ 
3 | _ _ _ _ P _ _ _ 
2 | P P P P _ P P P 
1 | R N B Q K B N R 
-------------------
  | A B C D E F G H 

Turn of: black
Succesful move
e7e5
8 | R N B Q K B N R 
7 | P P P P _ P P P 
6 | _ _ _ _ _ _ _ _ 
5 | _ _ _ _ P _ _ _ 
4 | _ _ _ _ _ _ _ _ 
3 | _ _ _ _ P _ _ _ 
2 | P P P P _ P P P 
1 | R N B Q K B N R 
-------------------
  | A B C D E F G H 

Turn of: white
Succesful move
d2d3
8 | R N B Q K B N R 
7 | P P P P _ P P P 
6 | _ _ _ _ _ _ _ _ 
5 | _ _ _ _ P _ _ _ 
4 | _ _ _ _ _ _ _ _ 
3 | _ _ _ P P _ _ _ 
2 | P P P _ _ P P P 
1 | R N B Q K B N R 
-------------------
  | A B C D E F G H 

Turn of: black
Succesful move
d8f6
8 | R N B _ K B N R 
7 | P P P P _ P P P 
6 | _ _ _ _ _ Q _ _ 
5 | _ _ _ _ P _ _ _ 
4 | _ _ _ _ _ _ _ _ 
3 | _ _ _ P P _ _ _ 
2 | P P P _ _ P P P 
1 | R N B Q K B N R 
-------------------
  | A B C D E F G H 

Turn of: white
Succesful move
c1d2
8 | R N B _ K B N R 
7 | P P P P _ P P P 
6 | _ _ _ _ _ Q _ _ 
5 | _ _ _ _ P _ _ _ 
4 | _ _ _ _ _ _ _ _ 
3 | _ _ _ P P _ _ _ 
2 | P P P B _ P P P 
1 | R N _ Q K B N R 
-------------------
  | A B C D E F G H 

Turn of: black
Succesful move
b8c6
8 | R _ B _ K B N R 
7 | P P P P _ P P P 
6 | _ _ N _ _ Q _ _ 
5 | _ _ _ _ P _ _ _ 
4 | _ _ _ _ _ _ _ _ 
3 | _ _ _ P P _ _ _ 
2 | P P P B _ P P P 
1 | R N _ Q K B N R 
-------------------
  | A B C D E F G H 

Turn of: white
Succesful move
d1c1
8 | R _ B _ K B N R 
7 | P P P P _ P P P 
6 | _ _ N _ _ Q _ _ 
5 | _ _ _ _ P _ _ _ 
4 | _ _ _ _ _ _ _ _ 
3 | _ _ _ P P _ _ _ 
2 | P P P B _ P P P 
1 | R N Q _ K B N R 
-------------------
  | A B C D E F G H 

Turn of: black
Succesful move
g8e7
8 | R _ B _ K B _ R 
7 | P P P P N P P P 
6 | _ _ N _ _ Q _ _ 
5 | _ _ _ _ P _ _ _ 
4 | _ _ _ _ _ _ _ _ 
3 | _ _ _ P P _ _ _ 
2 | P P P B _ P P P 
1 | R N Q _ K B N R 
-------------------
  | A B C D E F G H 

Turn of: white
Succesful move
f2f4
8 | R _ B _ K B _ R 
7 | P P P P N P P P 
6 | _ _ N _ _ Q _ _ 
5 | _ _ _ _ P _ _ _ 
4 | _ _ _ _ _ P _ _ 
3 | _ _ _ P P _ _ _ 
2 | P P P B _ _ P P 
1 | R N Q _ K B N R 
-------------------
  | A B C D E F G H 

Turn of: black
Succesful move
e5f4
8 | R _ B _ K B _ R 
7 | P P P P N P P P 
6 | _ _ N _ _ Q _ _ 
5 | _ _ _ _ _ _ _ _ 
4 | _ _ _ _ _ P _ _ 
3 | _ _ _ P P _ _ _ 
2 | P P P B _ _ P P 
1 | R N Q _ K B N R 
-------------------
  | A B C D E F G H 

Turn of: white
Succesful move
a2a3
8 | R _ B _ K B _ R 
7 | P P P P N P P P 
6 | _ _ N _ _ Q _ _ 
5 | _ _ _ _ _ _ _ _ 
4 | _ _ _ _ _ P _ _ 
3 | P _ _ P P _ _ _ 
2 | _ P P B _ _ P P 
1 | R N Q _ K B N R 
-------------------
  | A B C D E F G H 

Turn of: black
Succesful move
f4e3
8 | R _ B _ K B _ R 
7 | P P P P N P P P 
6 | _ _ N _ _ Q _ _ 
5 | _ _ _ _ _ _ _ _ 
4 | _ _ _ _ _ _ _ _ 
3 | P _ _ P P _ _ _ 
2 | _ P P B _ _ P P 
1 | R N Q _ K B N R 
-------------------
  | A B C D E F G H 

Turn of: white
Succesful move
g2g3
8 | R _ B _ K B _ R 
7 | P P P P N P P P 
6 | _ _ N _ _ Q _ _ 
5 | _ _ _ _ _ _ _ _ 
4 | _ _ _ _ _ _ _ _ 
3 | P _ _ P P _ P _ 
2 | _ P P B _ _ _ P 
1 | R N Q _ K B N R 
-------------------
  | A B C D E F G H 

Turn of: black
Succesful move
e3d2
8 | R _ B _ K B _ R 
7 | P P P P N P P P 
6 | _ _ N _ _ Q _ _ 
5 | _ _ _ _ _ _ _ _ 
4 | _ _ _ _ _ _ _ _ 
3 | P _ _ P _ _ P _ 
2 | _ P P P _ _ _ P 
1 | R N Q _ K B N R 
-------------------
  | A B C D E F G H 

We are playing as White
Move history:
e2e3
e7e5
d2d3
d8f6
c1d2
b8c6
d1c1
g8e7
f2f4
e5f4
a2a3
f4e3
g2g3
e3d2
8 | R _ B _ K B _ R 
7 | P P P P N P P P 
6 | _ _ N _ _ Q _ _ 
5 | _ _ _ _ _ _ _ _ 
4 | _ _ _ _ _ _ _ _ 
3 | P _ _ P _ _ P _ 
2 | _ P P P _ _ _ P 
1 | R N Q _ K B N R 
-------------------
  | A B C D E F G H 

It is white's turn to play.
AI's move: e1d1
Move written: e1d1
[32;1m[Game] [0mPlayer's error code: 0
[32;1m[Game] [0mChecking move validity...
[32;1m[Board] [0mInitializing board...
[32;1m[Board] [0mLoading history file `championship/lizzie-iii-blueherring/history.csv`...
[32;1m[Board] [0mLoaded 14 move(s).
[32;1m[Board] [0mLoading move file `championship/lizzie-iii-blueherring/move.csv`...
[32;1m[Board] [0mWhite player is playing e1 to d1.
[32;1m[Board] [0m
[32;1m[Board] [0m    a b c d e f g h 
[32;1m[Board] [0m  -------------------
[32;1m[Board] [0m8 ||[30;1mr[0m| |[30;1mb[0m| |[30;1mK[0m|[30;1mb[0m|[7;1m [0m|[30;1mr[0m|| 8
[32;1m[Board] [0m  -------------------
[32;1m[Board] [0m7 ||[30;1mp[0m|[30;1mp[0m|[30;1mp[0m|[30;1mp[0m|[30;1mk[0m|[30;1mp[0m|[30;1mp[0m|[30;1mp[0m|| 7
[32;1m[Board] [0m  -------------------
[32;1m[Board] [0m6 ||[7;1m [0m| |[30;1mk[0m| |[7;1m [0m|[30;1mQ[0m|[7;1m [0m| || 6
[32;1m[Board] [0m  -------------------
[32;1m[Board] [0m5 || |[7;1m [0m| |[7;1m [0m| |[7;1m [0m| |[7;1m [0m|| 5
[32;1m[Board] [0m  -------------------
[32;1m[Board] [0m4 ||[7;1m [0m| |[7;1m [0m| |[7;1m [0m| |[7;1m [0m| || 4
[32;1m[Board] [0m  -------------------
[32;1m[Board] [0m3 ||[0;1mp[0m|[7;1m [0m| |[0;1mp[0m| |[7;1m [0m|[0;1mp[0m|[7;1m [0m|| 3
[32;1m[Board] [0m  -------------------
[32;1m[Board] [0m2 ||[7;1m [0m|[0;1mp[0m|[0;1mp[0m|[30;1mp[0m|[7;1m [0m| |[7;1m [0m|[0;1mp[0m|| 2
[32;1m[Board] [0m  -------------------
[32;1m[Board] [0m1 ||[0;1mr[0m|[0;1mk[0m|[0;1mQ[0m|[0;1mK[0m| |[0;1mb[0m|[0;1mk[0m|[0;1mr[0m|| 1
[32;1m[Board] [0m  -------------------
[32;1m[Board] [0m    a b c d e f g h
[32;1m[Board] [0m
[32;1m[Referee] [0mThis is the turn of the Black player...
[32;1m[Game] [0mPlayer's error code: 0
[32;1m[Game] [0mChecking move validity...
[32;1m[Board] [0mInitializing board...
[32;1m[Board] [0mLoading history file `championship/lizzie-iii-blueherring/history.csv`...
[32;1m[Board] [0mLoaded 15 move(s).
[32;1m[Board] [0mLoading move file `championship/lizzie-iii-blueherring/move.csv`...
[32;1m[Board] [0mBlack player is playing f6 to f1.
[32;1m[Board] [0m[5;1mBlack Queen is taking White Bishop.[0m
[32;1m[Board] [0m
[32;1m[Board] [0m    a b c d e f g h 
[32;1m[Board] [0m  -------------------
[32;1m[Board] [0m8 ||[30;1mr[0m| |[30;1mb[0m| |[30;1mK[0m|[30;1mb[0m|[7;1m [0m|[30;1mr[0m|| 8
[32;1m[Board] [0m  -------------------
[32;1m[Board] [0m7 ||[30;1mp[0m|[30;1mp[0m|[30;1mp[0m|[30;1mp[0m|[30;1mk[0m|[30;1mp[0m|[30;1mp[0m|[30;1mp[0m|| 7
[32;1m[Board] [0m  -------------------
[32;1m[Board] [0m6 ||[7;1m [0m| |[30;1mk[0m| |[7;1m [0m| |[7;1m [0m| || 6
[32;1m[Board] [0m  -------------------
[32;1m[Board] [0m5 || |[7;1m [0m| |[7;1m [0m| |[7;1m [0m| |[7;1m [0m|| 5
[32;1m[Board] [0m  -------------------
[32;1m[Board] [0m4 ||[7;1m [0m| |[7;1m [0m| |[7;1m [0m| |[7;1m [0m| || 4
[32;1m[Board] [0m  -------------------
[32;1m[Board] [0m3 ||[0;1mp[0m|[7;1m [0m| |[0;1mp[0m| |[7;1m [0m|[0;1mp[0m|[7;1m [0m|| 3
[32;1m[Board] [0m  -------------------
[32;1m[Board] [0m2 ||[7;1m [0m|[0;1mp[0m|[0;1mp[0m|[30;1mp[0m|[7;1m [0m| |[7;1m [0m|[0;1mp[0m|| 2
[32;1m[Board] [0m  -------------------
[32;1m[Board] [0m1 ||[0;1mr[0m|[0;1mk[0m|[0;1mQ[0m|[0;1mK[0m| |[30;1mQ[0m|[0;1mk[0m|[0;1mr[0m|| 1
[32;1m[Board] [0m  -------------------
[32;1m[Board] [0m    a b c d e f g h
[32;1m[Board] [0m
[32;1m[Referee] [0mThis is the turn of the White player...
[32;1m[Board] [0m[33;1m[WARNING][0m [5;1mWhite King in check![0m
[32;1m[Board] [0m[33;1m[WARNING][0m    Threatened by Black Queen (f1)
Input file: championship/lizzie-iii-blueherring/history.csv
Output file: championship/lizzie-iii-blueherring/move.csv
Turn of: white
Succesful move
e2e3
8 | R N B Q K B N R 
7 | P P P P P P P P 
6 | _ _ _ _ _ _ _ _ 
5 | _ _ _ _ _ _ _ _ 
4 | _ _ _ _ _ _ _ _ 
3 | _ _ _ _ P _ _ _ 
2 | P P P P _ P P P 
1 | R N B Q K B N R 
-------------------
  | A B C D E F G H 

Turn of: black
Succesful move
e7e5
8 | R N B Q K B N R 
7 | P P P P _ P P P 
6 | _ _ _ _ _ _ _ _ 
5 | _ _ _ _ P _ _ _ 
4 | _ _ _ _ _ _ _ _ 
3 | _ _ _ _ P _ _ _ 
2 | P P P P _ P P P 
1 | R N B Q K B N R 
-------------------
  | A B C D E F G H 

Turn of: white
Succesful move
d2d3
8 | R N B Q K B N R 
7 | P P P P _ P P P 
6 | _ _ _ _ _ _ _ _ 
5 | _ _ _ _ P _ _ _ 
4 | _ _ _ _ _ _ _ _ 
3 | _ _ _ P P _ _ _ 
2 | P P P _ _ P P P 
1 | R N B Q K B N R 
-------------------
  | A B C D E F G H 

Turn of: black
Succesful move
d8f6
8 | R N B _ K B N R 
7 | P P P P _ P P P 
6 | _ _ _ _ _ Q _ _ 
5 | _ _ _ _ P _ _ _ 
4 | _ _ _ _ _ _ _ _ 
3 | _ _ _ P P _ _ _ 
2 | P P P _ _ P P P 
1 | R N B Q K B N R 
-------------------
  | A B C D E F G H 

Turn of: white
Succesful move
c1d2
8 | R N B _ K B N R 
7 | P P P P _ P P P 
6 | _ _ _ _ _ Q _ _ 
5 | _ _ _ _ P _ _ _ 
4 | _ _ _ _ _ _ _ _ 
3 | _ _ _ P P _ _ _ 
2 | P P P B _ P P P 
1 | R N _ Q K B N R 
-------------------
  | A B C D E F G H 

Turn of: black
Succesful move
b8c6
8 | R _ B _ K B N R 
7 | P P P P _ P P P 
6 | _ _ N _ _ Q _ _ 
5 | _ _ _ _ P _ _ _ 
4 | _ _ _ _ _ _ _ _ 
3 | _ _ _ P P _ _ _ 
2 | P P P B _ P P P 
1 | R N _ Q K B N R 
-------------------
  | A B C D E F G H 

Turn of: white
Succesful move
d1c1
8 | R _ B _ K B N R 
7 | P P P P _ P P P 
6 | _ _ N _ _ Q _ _ 
5 | _ _ _ _ P _ _ _ 
4 | _ _ _ _ _ _ _ _ 
3 | _ _ _ P P _ _ _ 
2 | P P P B _ P P P 
1 | R N Q _ K B N R 
-------------------
  | A B C D E F G H 

Turn of: black
Succesful move
g8e7
8 | R _ B _ K B _ R 
7 | P P P P N P P P 
6 | _ _ N _ _ Q _ _ 
5 | _ _ _ _ P _ _ _ 
4 | _ _ _ _ _ _ _ _ 
3 | _ _ _ P P _ _ _ 
2 | P P P B _ P P P 
1 | R N Q _ K B N R 
-------------------
  | A B C D E F G H 

Turn of: white
Succesful move
f2f4
8 | R _ B _ K B _ R 
7 | P P P P N P P P 
6 | _ _ N _ _ Q _ _ 
5 | _ _ _ _ P _ _ _ 
4 | _ _ _ _ _ P _ _ 
3 | _ _ _ P P _ _ _ 
2 | P P P B _ _ P P 
1 | R N Q _ K B N R 
-------------------
  | A B C D E F G H 

Turn of: black
Succesful move
e5f4
8 | R _ B _ K B _ R 
7 | P P P P N P P P 
6 | _ _ N _ _ Q _ _ 
5 | _ _ _ _ _ _ _ _ 
4 | _ _ _ _ _ P _ _ 
3 | _ _ _ P P _ _ _ 
2 | P P P B _ _ P P 
1 | R N Q _ K B N R 
-------------------
  | A B C D E F G H 

Turn of: white
Succesful move
a2a3
8 | R _ B _ K B _ R 
7 | P P P P N P P P 
6 | _ _ N _ _ Q _ _ 
5 | _ _ _ _ _ _ _ _ 
4 | _ _ _ _ _ P _ _ 
3 | P _ _ P P _ _ _ 
2 | _ P P B _ _ P P 
1 | R N Q _ K B N R 
-------------------
  | A B C D E F G H 

Turn of: black
Succesful move
f4e3
8 | R _ B _ K B _ R 
7 | P P P P N P P P 
6 | _ _ N _ _ Q _ _ 
5 | _ _ _ _ _ _ _ _ 
4 | _ _ _ _ _ _ _ _ 
3 | P _ _ P P _ _ _ 
2 | _ P P B _ _ P P 
1 | R N Q _ K B N R 
-------------------
  | A B C D E F G H 

Turn of: white
Succesful move
g2g3
8 | R _ B _ K B _ R 
7 | P P P P N P P P 
6 | _ _ N _ _ Q _ _ 
5 | _ _ _ _ _ _ _ _ 
4 | _ _ _ _ _ _ _ _ 
3 | P _ _ P P _ P _ 
2 | _ P P B _ _ _ P 
1 | R N Q _ K B N R 
-------------------
  | A B C D E F G H 

Turn of: black
Succesful move
e3d2
8 | R _ B _ K B _ R 
7 | P P P P N P P P 
6 | _ _ N _ _ Q _ _ 
5 | _ _ _ _ _ _ _ _ 
4 | _ _ _ _ _ _ _ _ 
3 | P _ _ P _ _ P _ 
2 | _ P P P _ _ _ P 
1 | R N Q _ K B N R 
-------------------
  | A B C D E F G H 

Turn of: white
Succesful move
e1d1
8 | R _ B _ K B _ R 
7 | P P P P N P P P 
6 | _ _ N _ _ Q _ _ 
5 | _ _ _ _ _ _ _ _ 
4 | _ _ _ _ _ _ _ _ 
3 | P _ _ P _ _ P _ 
2 | _ P P P _ _ _ P 
1 | R N Q K _ B N R 
-------------------
  | A B C D E F G H 

Turn of: black
Succesful move
f6f1
8 | R _ B _ K B _ R 
7 | P P P P N P P P 
6 | _ _ N _ _ _ _ _ 
5 | _ _ _ _ _ _ _ _ 
4 | _ _ _ _ _ _ _ _ 
3 | P _ _ P _ _ P _ 
2 | _ P P P _ _ _ P 
1 | R N Q K _ Q N R 
-------------------
  | A B C D E F G H 

We are playing as White
Move history:
e2e3
e7e5
d2d3
d8f6
c1d2
b8c6
d1c1
g8e7
f2f4
e5f4
a2a3
f4e3
g2g3
e3d2
e1d1
f6f1
8 | R _ B _ K B _ R 
7 | P P P P N P P P 
6 | _ _ N _ _ _ _ _ 
5 | _ _ _ _ _ _ _ _ 
4 | _ _ _ _ _ _ _ _ 
3 | P _ _ P _ _ P _ 
2 | _ P P P _ _ _ P 
1 | R N Q K _ Q N R 
-------------------
  | A B C D E F G H 

It is white's turn to play.
AI's move: d1d2
Move written: d1d2
[32;1m[Game] [0mPlayer's error code: 0
[32;1m[Game] [0mChecking move validity...
[32;1m[Board] [0mInitializing board...
[32;1m[Board] [0mLoading history file `championship/lizzie-iii-blueherring/history.csv`...
[32;1m[Board] [0mLoaded 16 move(s).
[32;1m[Board] [0mLoading move file `championship/lizzie-iii-blueherring/move.csv`...
[32;1m[Board] [0mWhite player is playing d1 to d2.
[32;1m[Board] [0m[5;1mWhite King is taking Black Pawn.[0m
[32;1m[Board] [0m
[32;1m[Board] [0m    a b c d e f g h 
[32;1m[Board] [0m  -------------------
[32;1m[Board] [0m8 ||[30;1mr[0m| |[30;1mb[0m| |[30;1mK[0m|[30;1mb[0m|[7;1m [0m|[30;1mr[0m|| 8
[32;1m[Board] [0m  -------------------
[32;1m[Board] [0m7 ||[30;1mp[0m|[30;1mp[0m|[30;1mp[0m|[30;1mp[0m|[30;1mk[0m|[30;1mp[0m|[30;1mp[0m|[30;1mp[0m|| 7
[32;1m[Board] [0m  -------------------
[32;1m[Board] [0m6 ||[7;1m [0m| |[30;1mk[0m| |[7;1m [0m| |[7;1m [0m| || 6
[32;1m[Board] [0m  -------------------
[32;1m[Board] [0m5 || |[7;1m [0m| |[7;1m [0m| |[7;1m [0m| |[7;1m [0m|| 5
[32;1m[Board] [0m  -------------------
[32;1m[Board] [0m4 ||[7;1m [0m| |[7;1m [0m| |[7;1m [0m| |[7;1m [0m| || 4
[32;1m[Board] [0m  -------------------
[32;1m[Board] [0m3 ||[0;1mp[0m|[7;1m [0m| |[0;1mp[0m| |[7;1m [0m|[0;1mp[0m|[7;1m [0m|| 3
[32;1m[Board] [0m  -------------------
[32;1m[Board] [0m2 ||[7;1m [0m|[0;1mp[0m|[0;1mp[0m|[0;1mK[0m|[7;1m [0m| |[7;1m [0m|[0;1mp[0m|| 2
[32;1m[Board] [0m  -------------------
[32;1m[Board] [0m1 ||[0;1mr[0m|[0;1mk[0m|[0;1mQ[0m|[7;1m [0m| |[30;1mQ[0m|[0;1mk[0m|[0;1mr[0m|| 1
[32;1m[Board] [0m  -------------------
[32;1m[Board] [0m    a b c d e f g h
[32;1m[Board] [0m
[32;1m[Referee] [0mThis is the turn of the Black player...
[32;1m[Game] [0mPlayer's error code: 0
[32;1m[Game] [0mChecking move validity...
[32;1m[Board] [0mInitializing board...
[32;1m[Board] [0mLoading history file `championship/lizzie-iii-blueherring/history.csv`...
[32;1m[Board] [0mLoaded 17 move(s).
[32;1m[Board] [0mLoading move file `championship/lizzie-iii-blueherring/move.csv`...
[32;1m[Board] [0mBlack player is playing f1 to g2.
[32;1m[Board] [0m
[32;1m[Board] [0m    a b c d e f g h 
[32;1m[Board] [0m  -------------------
[32;1m[Board] [0m8 ||[30;1mr[0m| |[30;1mb[0m| |[30;1mK[0m|[30;1mb[0m|[7;1m [0m|[30;1mr[0m|| 8
[32;1m[Board] [0m  -------------------
[32;1m[Board] [0m7 ||[30;1mp[0m|[30;1mp[0m|[30;1mp[0m|[30;1mp[0m|[30;1mk[0m|[30;1mp[0m|[30;1mp[0m|[30;1mp[0m|| 7
[32;1m[Board] [0m  -------------------
[32;1m[Board] [0m6 ||[7;1m [0m| |[30;1mk[0m| |[7;1m [0m| |[7;1m [0m| || 6
[32;1m[Board] [0m  -------------------
[32;1m[Board] [0m5 || |[7;1m [0m| |[7;1m [0m| |[7;1m [0m| |[7;1m [0m|| 5
[32;1m[Board] [0m  -------------------
[32;1m[Board] [0m4 ||[7;1m [0m| |[7;1m [0m| |[7;1m [0m| |[7;1m [0m| || 4
[32;1m[Board] [0m  -------------------
[32;1m[Board] [0m3 ||[0;1mp[0m|[7;1m [0m| |[0;1mp[0m| |[7;1m [0m|[0;1mp[0m|[7;1m [0m|| 3
[32;1m[Board] [0m  -------------------
[32;1m[Board] [0m2 ||[7;1m [0m|[0;1mp[0m|[0;1mp[0m|[0;1mK[0m|[7;1m [0m| |[30;1mQ[0m|[0;1mp[0m|| 2
[32;1m[Board] [0m  -------------------
[32;1m[Board] [0m1 ||[0;1mr[0m|[0;1mk[0m|[0;1mQ[0m|[7;1m [0m| |[7;1m [0m|[0;1mk[0m|[0;1mr[0m|| 1
[32;1m[Board] [0m  -------------------
[32;1m[Board] [0m    a b c d e f g h
[32;1m[Board] [0m
[32;1m[Referee] [0mThis is the turn of the White player...
[32;1m[Board] [0m[33;1m[WARNING][0m [5;1mWhite King in check![0m
[32;1m[Board] [0m[33;1m[WARNING][0m    Threatened by Black Queen (g2)
Input file: championship/lizzie-iii-blueherring/history.csv
Output file: championship/lizzie-iii-blueherring/move.csv
Turn of: white
Succesful move
e2e3
8 | R N B Q K B N R 
7 | P P P P P P P P 
6 | _ _ _ _ _ _ _ _ 
5 | _ _ _ _ _ _ _ _ 
4 | _ _ _ _ _ _ _ _ 
3 | _ _ _ _ P _ _ _ 
2 | P P P P _ P P P 
1 | R N B Q K B N R 
-------------------
  | A B C D E F G H 

Turn of: black
Succesful move
e7e5
8 | R N B Q K B N R 
7 | P P P P _ P P P 
6 | _ _ _ _ _ _ _ _ 
5 | _ _ _ _ P _ _ _ 
4 | _ _ _ _ _ _ _ _ 
3 | _ _ _ _ P _ _ _ 
2 | P P P P _ P P P 
1 | R N B Q K B N R 
-------------------
  | A B C D E F G H 

Turn of: white
Succesful move
d2d3
8 | R N B Q K B N R 
7 | P P P P _ P P P 
6 | _ _ _ _ _ _ _ _ 
5 | _ _ _ _ P _ _ _ 
4 | _ _ _ _ _ _ _ _ 
3 | _ _ _ P P _ _ _ 
2 | P P P _ _ P P P 
1 | R N B Q K B N R 
-------------------
  | A B C D E F G H 

Turn of: black
Succesful move
d8f6
8 | R N B _ K B N R 
7 | P P P P _ P P P 
6 | _ _ _ _ _ Q _ _ 
5 | _ _ _ _ P _ _ _ 
4 | _ _ _ _ _ _ _ _ 
3 | _ _ _ P P _ _ _ 
2 | P P P _ _ P P P 
1 | R N B Q K B N R 
-------------------
  | A B C D E F G H 

Turn of: white
Succesful move
c1d2
8 | R N B _ K B N R 
7 | P P P P _ P P P 
6 | _ _ _ _ _ Q _ _ 
5 | _ _ _ _ P _ _ _ 
4 | _ _ _ _ _ _ _ _ 
3 | _ _ _ P P _ _ _ 
2 | P P P B _ P P P 
1 | R N _ Q K B N R 
-------------------
  | A B C D E F G H 

Turn of: black
Succesful move
b8c6
8 | R _ B _ K B N R 
7 | P P P P _ P P P 
6 | _ _ N _ _ Q _ _ 
5 | _ _ _ _ P _ _ _ 
4 | _ _ _ _ _ _ _ _ 
3 | _ _ _ P P _ _ _ 
2 | P P P B _ P P P 
1 | R N _ Q K B N R 
-------------------
  | A B C D E F G H 

Turn of: white
Succesful move
d1c1
8 | R _ B _ K B N R 
7 | P P P P _ P P P 
6 | _ _ N _ _ Q _ _ 
5 | _ _ _ _ P _ _ _ 
4 | _ _ _ _ _ _ _ _ 
3 | _ _ _ P P _ _ _ 
2 | P P P B _ P P P 
1 | R N Q _ K B N R 
-------------------
  | A B C D E F G H 

Turn of: black
Succesful move
g8e7
8 | R _ B _ K B _ R 
7 | P P P P N P P P 
6 | _ _ N _ _ Q _ _ 
5 | _ _ _ _ P _ _ _ 
4 | _ _ _ _ _ _ _ _ 
3 | _ _ _ P P _ _ _ 
2 | P P P B _ P P P 
1 | R N Q _ K B N R 
-------------------
  | A B C D E F G H 

Turn of: white
Succesful move
f2f4
8 | R _ B _ K B _ R 
7 | P P P P N P P P 
6 | _ _ N _ _ Q _ _ 
5 | _ _ _ _ P _ _ _ 
4 | _ _ _ _ _ P _ _ 
3 | _ _ _ P P _ _ _ 
2 | P P P B _ _ P P 
1 | R N Q _ K B N R 
-------------------
  | A B C D E F G H 

Turn of: black
Succesful move
e5f4
8 | R _ B _ K B _ R 
7 | P P P P N P P P 
6 | _ _ N _ _ Q _ _ 
5 | _ _ _ _ _ _ _ _ 
4 | _ _ _ _ _ P _ _ 
3 | _ _ _ P P _ _ _ 
2 | P P P B _ _ P P 
1 | R N Q _ K B N R 
-------------------
  | A B C D E F G H 

Turn of: white
Succesful move
a2a3
8 | R _ B _ K B _ R 
7 | P P P P N P P P 
6 | _ _ N _ _ Q _ _ 
5 | _ _ _ _ _ _ _ _ 
4 | _ _ _ _ _ P _ _ 
3 | P _ _ P P _ _ _ 
2 | _ P P B _ _ P P 
1 | R N Q _ K B N R 
-------------------
  | A B C D E F G H 

Turn of: black
Succesful move
f4e3
8 | R _ B _ K B _ R 
7 | P P P P N P P P 
6 | _ _ N _ _ Q _ _ 
5 | _ _ _ _ _ _ _ _ 
4 | _ _ _ _ _ _ _ _ 
3 | P _ _ P P _ _ _ 
2 | _ P P B _ _ P P 
1 | R N Q _ K B N R 
-------------------
  | A B C D E F G H 

Turn of: white
Succesful move
g2g3
8 | R _ B _ K B _ R 
7 | P P P P N P P P 
6 | _ _ N _ _ Q _ _ 
5 | _ _ _ _ _ _ _ _ 
4 | _ _ _ _ _ _ _ _ 
3 | P _ _ P P _ P _ 
2 | _ P P B _ _ _ P 
1 | R N Q _ K B N R 
-------------------
  | A B C D E F G H 

Turn of: black
Succesful move
e3d2
8 | R _ B _ K B _ R 
7 | P P P P N P P P 
6 | _ _ N _ _ Q _ _ 
5 | _ _ _ _ _ _ _ _ 
4 | _ _ _ _ _ _ _ _ 
3 | P _ _ P _ _ P _ 
2 | _ P P P _ _ _ P 
1 | R N Q _ K B N R 
-------------------
  | A B C D E F G H 

Turn of: white
Succesful move
e1d1
8 | R _ B _ K B _ R 
7 | P P P P N P P P 
6 | _ _ N _ _ Q _ _ 
5 | _ _ _ _ _ _ _ _ 
4 | _ _ _ _ _ _ _ _ 
3 | P _ _ P _ _ P _ 
2 | _ P P P _ _ _ P 
1 | R N Q K _ B N R 
-------------------
  | A B C D E F G H 

Turn of: black
Succesful move
f6f1
8 | R _ B _ K B _ R 
7 | P P P P N P P P 
6 | _ _ N _ _ _ _ _ 
5 | _ _ _ _ _ _ _ _ 
4 | _ _ _ _ _ _ _ _ 
3 | P _ _ P _ _ P _ 
2 | _ P P P _ _ _ P 
1 | R N Q K _ Q N R 
-------------------
  | A B C D E F G H 

Turn of: white
Succesful move
d1d2
8 | R _ B _ K B _ R 
7 | P P P P N P P P 
6 | _ _ N _ _ _ _ _ 
5 | _ _ _ _ _ _ _ _ 
4 | _ _ _ _ _ _ _ _ 
3 | P _ _ P _ _ P _ 
2 | _ P P K _ _ _ P 
1 | R N Q _ _ Q N R 
-------------------
  | A B C D E F G H 

Turn of: black
Succesful move
f1g2
8 | R _ B _ K B _ R 
7 | P P P P N P P P 
6 | _ _ N _ _ _ _ _ 
5 | _ _ _ _ _ _ _ _ 
4 | _ _ _ _ _ _ _ _ 
3 | P _ _ P _ _ P _ 
2 | _ P P K _ _ Q P 
1 | R N Q _ _ _ N R 
-------------------
  | A B C D E F G H 

We are playing as White
Move history:
e2e3
e7e5
d2d3
d8f6
c1d2
b8c6
d1c1
g8e7
f2f4
e5f4
a2a3
f4e3
g2g3
e3d2
e1d1
f6f1
d1d2
f1g2
8 | R _ B _ K B _ R 
7 | P P P P N P P P 
6 | _ _ N _ _ _ _ _ 
5 | _ _ _ _ _ _ _ _ 
4 | _ _ _ _ _ _ _ _ 
3 | P _ _ P _ _ P _ 
2 | _ P P K _ _ Q P 
1 | R N Q _ _ _ N R 
-------------------
  | A B C D E F G H 

It is white's turn to play.
AI's move: d2e1
Move written: d2e1
[32;1m[Game] [0mPlayer's error code: 0
[32;1m[Game] [0mChecking move validity...
[32;1m[Board] [0mInitializing board...
[32;1m[Board] [0mLoading history file `championship/lizzie-iii-blueherring/history.csv`...
[32;1m[Board] [0mLoaded 18 move(s).
[32;1m[Board] [0mLoading move file `championship/lizzie-iii-blueherring/move.csv`...
[32;1m[Board] [0mWhite player is playing d2 to e1.
[32;1m[Board] [0m
[32;1m[Board] [0m    a b c d e f g h 
[32;1m[Board] [0m  -------------------
[32;1m[Board] [0m8 ||[30;1mr[0m| |[30;1mb[0m| |[30;1mK[0m|[30;1mb[0m|[7;1m [0m|[30;1mr[0m|| 8
[32;1m[Board] [0m  -------------------
[32;1m[Board] [0m7 ||[30;1mp[0m|[30;1mp[0m|[30;1mp[0m|[30;1mp[0m|[30;1mk[0m|[30;1mp[0m|[30;1mp[0m|[30;1mp[0m|| 7
[32;1m[Board] [0m  -------------------
[32;1m[Board] [0m6 ||[7;1m [0m| |[30;1mk[0m| |[7;1m [0m| |[7;1m [0m| || 6
[32;1m[Board] [0m  -------------------
[32;1m[Board] [0m5 || |[7;1m [0m| |[7;1m [0m| |[7;1m [0m| |[7;1m [0m|| 5
[32;1m[Board] [0m  -------------------
[32;1m[Board] [0m4 ||[7;1m [0m| |[7;1m [0m| |[7;1m [0m| |[7;1m [0m| || 4
[32;1m[Board] [0m  -------------------
[32;1m[Board] [0m3 ||[0;1mp[0m|[7;1m [0m| |[0;1mp[0m| |[7;1m [0m|[0;1mp[0m|[7;1m [0m|| 3
[32;1m[Board] [0m  -------------------
[32;1m[Board] [0m2 ||[7;1m [0m|[0;1mp[0m|[0;1mp[0m| |[7;1m [0m| |[30;1mQ[0m|[0;1mp[0m|| 2
[32;1m[Board] [0m  -------------------
[32;1m[Board] [0m1 ||[0;1mr[0m|[0;1mk[0m|[0;1mQ[0m|[7;1m [0m|[0;1mK[0m|[7;1m [0m|[0;1mk[0m|[0;1mr[0m|| 1
[32;1m[Board] [0m  -------------------
[32;1m[Board] [0m    a b c d e f g h
[32;1m[Board] [0m
[32;1m[Referee] [0mThis is the turn of the Black player...
[32;1m[Game] [0mPlayer's error code: 0
[32;1m[Game] [0mChecking move validity...
[32;1m[Board] [0mInitializing board...
[32;1m[Board] [0mLoading history file `championship/lizzie-iii-blueherring/history.csv`...
[32;1m[Board] [0mLoaded 19 move(s).
[32;1m[Board] [0mLoading move file `championship/lizzie-iii-blueherring/move.csv`...
[32;1m[Board] [0mBlack player is playing g2 to h1.
[32;1m[Board] [0m[5;1mBlack Queen is taking White Rook.[0m
[32;1m[Board] [0m
[32;1m[Board] [0m    a b c d e f g h 
[32;1m[Board] [0m  -------------------
[32;1m[Board] [0m8 ||[30;1mr[0m| |[30;1mb[0m| |[30;1mK[0m|[30;1mb[0m|[7;1m [0m|[30;1mr[0m|| 8
[32;1m[Board] [0m  -------------------
[32;1m[Board] [0m7 ||[30;1mp[0m|[30;1mp[0m|[30;1mp[0m|[30;1mp[0m|[30;1mk[0m|[30;1mp[0m|[30;1mp[0m|[30;1mp[0m|| 7
[32;1m[Board] [0m  -------------------
[32;1m[Board] [0m6 ||[7;1m [0m| |[30;1mk[0m| |[7;1m [0m| |[7;1m [0m| || 6
[32;1m[Board] [0m  -------------------
[32;1m[Board] [0m5 || |[7;1m [0m| |[7;1m [0m| |[7;1m [0m| |[7;1m [0m|| 5
[32;1m[Board] [0m  -------------------
[32;1m[Board] [0m4 ||[7;1m [0m| |[7;1m [0m| |[7;1m [0m| |[7;1m [0m| || 4
[32;1m[Board] [0m  -------------------
[32;1m[Board] [0m3 ||[0;1mp[0m|[7;1m [0m| |[0;1mp[0m| |[7;1m [0m|[0;1mp[0m|[7;1m [0m|| 3
[32;1m[Board] [0m  -------------------
[32;1m[Board] [0m2 ||[7;1m [0m|[0;1mp[0m|[0;1mp[0m| |[7;1m [0m| |[7;1m [0m|[0;1mp[0m|| 2
[32;1m[Board] [0m  -------------------
[32;1m[Board] [0m1 ||[0;1mr[0m|[0;1mk[0m|[0;1mQ[0m|[7;1m [0m|[0;1mK[0m|[7;1m [0m|[0;1mk[0m|[30;1mQ[0m|| 1
[32;1m[Board] [0m  -------------------
[32;1m[Board] [0m    a b c d e f g h
[32;1m[Board] [0m
[32;1m[Referee] [0mThis is the turn of the White player...
Input file: championship/lizzie-iii-blueherring/history.csv
Output file: championship/lizzie-iii-blueherring/move.csv
Turn of: white
Succesful move
e2e3
8 | R N B Q K B N R 
7 | P P P P P P P P 
6 | _ _ _ _ _ _ _ _ 
5 | _ _ _ _ _ _ _ _ 
4 | _ _ _ _ _ _ _ _ 
3 | _ _ _ _ P _ _ _ 
2 | P P P P _ P P P 
1 | R N B Q K B N R 
-------------------
  | A B C D E F G H 

Turn of: black
Succesful move
e7e5
8 | R N B Q K B N R 
7 | P P P P _ P P P 
6 | _ _ _ _ _ _ _ _ 
5 | _ _ _ _ P _ _ _ 
4 | _ _ _ _ _ _ _ _ 
3 | _ _ _ _ P _ _ _ 
2 | P P P P _ P P P 
1 | R N B Q K B N R 
-------------------
  | A B C D E F G H 

Turn of: white
Succesful move
d2d3
8 | R N B Q K B N R 
7 | P P P P _ P P P 
6 | _ _ _ _ _ _ _ _ 
5 | _ _ _ _ P _ _ _ 
4 | _ _ _ _ _ _ _ _ 
3 | _ _ _ P P _ _ _ 
2 | P P P _ _ P P P 
1 | R N B Q K B N R 
-------------------
  | A B C D E F G H 

Turn of: black
Succesful move
d8f6
8 | R N B _ K B N R 
7 | P P P P _ P P P 
6 | _ _ _ _ _ Q _ _ 
5 | _ _ _ _ P _ _ _ 
4 | _ _ _ _ _ _ _ _ 
3 | _ _ _ P P _ _ _ 
2 | P P P _ _ P P P 
1 | R N B Q K B N R 
-------------------
  | A B C D E F G H 

Turn of: white
Succesful move
c1d2
8 | R N B _ K B N R 
7 | P P P P _ P P P 
6 | _ _ _ _ _ Q _ _ 
5 | _ _ _ _ P _ _ _ 
4 | _ _ _ _ _ _ _ _ 
3 | _ _ _ P P _ _ _ 
2 | P P P B _ P P P 
1 | R N _ Q K B N R 
-------------------
  | A B C D E F G H 

Turn of: black
Succesful move
b8c6
8 | R _ B _ K B N R 
7 | P P P P _ P P P 
6 | _ _ N _ _ Q _ _ 
5 | _ _ _ _ P _ _ _ 
4 | _ _ _ _ _ _ _ _ 
3 | _ _ _ P P _ _ _ 
2 | P P P B _ P P P 
1 | R N _ Q K B N R 
-------------------
  | A B C D E F G H 

Turn of: white
Succesful move
d1c1
8 | R _ B _ K B N R 
7 | P P P P _ P P P 
6 | _ _ N _ _ Q _ _ 
5 | _ _ _ _ P _ _ _ 
4 | _ _ _ _ _ _ _ _ 
3 | _ _ _ P P _ _ _ 
2 | P P P B _ P P P 
1 | R N Q _ K B N R 
-------------------
  | A B C D E F G H 

Turn of: black
Succesful move
g8e7
8 | R _ B _ K B _ R 
7 | P P P P N P P P 
6 | _ _ N _ _ Q _ _ 
5 | _ _ _ _ P _ _ _ 
4 | _ _ _ _ _ _ _ _ 
3 | _ _ _ P P _ _ _ 
2 | P P P B _ P P P 
1 | R N Q _ K B N R 
-------------------
  | A B C D E F G H 

Turn of: white
Succesful move
f2f4
8 | R _ B _ K B _ R 
7 | P P P P N P P P 
6 | _ _ N _ _ Q _ _ 
5 | _ _ _ _ P _ _ _ 
4 | _ _ _ _ _ P _ _ 
3 | _ _ _ P P _ _ _ 
2 | P P P B _ _ P P 
1 | R N Q _ K B N R 
-------------------
  | A B C D E F G H 

Turn of: black
Succesful move
e5f4
8 | R _ B _ K B _ R 
7 | P P P P N P P P 
6 | _ _ N _ _ Q _ _ 
5 | _ _ _ _ _ _ _ _ 
4 | _ _ _ _ _ P _ _ 
3 | _ _ _ P P _ _ _ 
2 | P P P B _ _ P P 
1 | R N Q _ K B N R 
-------------------
  | A B C D E F G H 

Turn of: white
Succesful move
a2a3
8 | R _ B _ K B _ R 
7 | P P P P N P P P 
6 | _ _ N _ _ Q _ _ 
5 | _ _ _ _ _ _ _ _ 
4 | _ _ _ _ _ P _ _ 
3 | P _ _ P P _ _ _ 
2 | _ P P B _ _ P P 
1 | R N Q _ K B N R 
-------------------
  | A B C D E F G H 

Turn of: black
Succesful move
f4e3
8 | R _ B _ K B _ R 
7 | P P P P N P P P 
6 | _ _ N _ _ Q _ _ 
5 | _ _ _ _ _ _ _ _ 
4 | _ _ _ _ _ _ _ _ 
3 | P _ _ P P _ _ _ 
2 | _ P P B _ _ P P 
1 | R N Q _ K B N R 
-------------------
  | A B C D E F G H 

Turn of: white
Succesful move
g2g3
8 | R _ B _ K B _ R 
7 | P P P P N P P P 
6 | _ _ N _ _ Q _ _ 
5 | _ _ _ _ _ _ _ _ 
4 | _ _ _ _ _ _ _ _ 
3 | P _ _ P P _ P _ 
2 | _ P P B _ _ _ P 
1 | R N Q _ K B N R 
-------------------
  | A B C D E F G H 

Turn of: black
Succesful move
e3d2
8 | R _ B _ K B _ R 
7 | P P P P N P P P 
6 | _ _ N _ _ Q _ _ 
5 | _ _ _ _ _ _ _ _ 
4 | _ _ _ _ _ _ _ _ 
3 | P _ _ P _ _ P _ 
2 | _ P P P _ _ _ P 
1 | R N Q _ K B N R 
-------------------
  | A B C D E F G H 

Turn of: white
Succesful move
e1d1
8 | R _ B _ K B _ R 
7 | P P P P N P P P 
6 | _ _ N _ _ Q _ _ 
5 | _ _ _ _ _ _ _ _ 
4 | _ _ _ _ _ _ _ _ 
3 | P _ _ P _ _ P _ 
2 | _ P P P _ _ _ P 
1 | R N Q K _ B N R 
-------------------
  | A B C D E F G H 

Turn of: black
Succesful move
f6f1
8 | R _ B _ K B _ R 
7 | P P P P N P P P 
6 | _ _ N _ _ _ _ _ 
5 | _ _ _ _ _ _ _ _ 
4 | _ _ _ _ _ _ _ _ 
3 | P _ _ P _ _ P _ 
2 | _ P P P _ _ _ P 
1 | R N Q K _ Q N R 
-------------------
  | A B C D E F G H 

Turn of: white
Succesful move
d1d2
8 | R _ B _ K B _ R 
7 | P P P P N P P P 
6 | _ _ N _ _ _ _ _ 
5 | _ _ _ _ _ _ _ _ 
4 | _ _ _ _ _ _ _ _ 
3 | P _ _ P _ _ P _ 
2 | _ P P K _ _ _ P 
1 | R N Q _ _ Q N R 
-------------------
  | A B C D E F G H 

Turn of: black
Succesful move
f1g2
8 | R _ B _ K B _ R 
7 | P P P P N P P P 
6 | _ _ N _ _ _ _ _ 
5 | _ _ _ _ _ _ _ _ 
4 | _ _ _ _ _ _ _ _ 
3 | P _ _ P _ _ P _ 
2 | _ P P K _ _ Q P 
1 | R N Q _ _ _ N R 
-------------------
  | A B C D E F G H 

Turn of: white
Succesful move
d2e1
8 | R _ B _ K B _ R 
7 | P P P P N P P P 
6 | _ _ N _ _ _ _ _ 
5 | _ _ _ _ _ _ _ _ 
4 | _ _ _ _ _ _ _ _ 
3 | P _ _ P _ _ P _ 
2 | _ P P _ _ _ Q P 
1 | R N Q _ K _ N R 
-------------------
  | A B C D E F G H 

Turn of: black
Succesful move
g2h1
8 | R _ B _ K B _ R 
7 | P P P P N P P P 
6 | _ _ N _ _ _ _ _ 
5 | _ _ _ _ _ _ _ _ 
4 | _ _ _ _ _ _ _ _ 
3 | P _ _ P _ _ P _ 
2 | _ P P _ _ _ _ P 
1 | R N Q _ K _ N Q 
-------------------
  | A B C D E F G H 

We are playing as White
Move history:
e2e3
e7e5
d2d3
d8f6
c1d2
b8c6
d1c1
g8e7
f2f4
e5f4
a2a3
f4e3
g2g3
e3d2
e1d1
f6f1
d1d2
f1g2
d2e1
g2h1
8 | R _ B _ K B _ R 
7 | P P P P N P P P 
6 | _ _ N _ _ _ _ _ 
5 | _ _ _ _ _ _ _ _ 
4 | _ _ _ _ _ _ _ _ 
3 | P _ _ P _ _ P _ 
2 | _ P P _ _ _ _ P 
1 | R N Q _ K _ N Q 
-------------------
  | A B C D E F G H 

It is white's turn to play.
AI's move: c1g5
Move written: c1g5
[32;1m[Game] [0mPlayer's error code: 0
[32;1m[Game] [0mChecking move validity...
[32;1m[Board] [0mInitializing board...
[32;1m[Board] [0mLoading history file `championship/lizzie-iii-blueherring/history.csv`...
[32;1m[Board] [0mLoaded 20 move(s).
[32;1m[Board] [0mLoading move file `championship/lizzie-iii-blueherring/move.csv`...
[32;1m[Board] [0mWhite player is playing c1 to g5.
[32;1m[Board] [0m
[32;1m[Board] [0m    a b c d e f g h 
[32;1m[Board] [0m  -------------------
[32;1m[Board] [0m8 ||[30;1mr[0m| |[30;1mb[0m| |[30;1mK[0m|[30;1mb[0m|[7;1m [0m|[30;1mr[0m|| 8
[32;1m[Board] [0m  -------------------
[32;1m[Board] [0m7 ||[30;1mp[0m|[30;1mp[0m|[30;1mp[0m|[30;1mp[0m|[30;1mk[0m|[30;1mp[0m|[30;1mp[0m|[30;1mp[0m|| 7
[32;1m[Board] [0m  -------------------
[32;1m[Board] [0m6 ||[7;1m [0m| |[30;1mk[0m| |[7;1m [0m| |[7;1m [0m| || 6
[32;1m[Board] [0m  -------------------
[32;1m[Board] [0m5 || |[7;1m [0m| |[7;1m [0m| |[7;1m [0m|[0;1mQ[0m|[7;1m [0m|| 5
[32;1m[Board] [0m  -------------------
[32;1m[Board] [0m4 ||[7;1m [0m| |[7;1m [0m| |[7;1m [0m| |[7;1m [0m| || 4
[32;1m[Board] [0m  -------------------
[32;1m[Board] [0m3 ||[0;1mp[0m|[7;1m [0m| |[0;1mp[0m| |[7;1m [0m|[0;1mp[0m|[7;1m [0m|| 3
[32;1m[Board] [0m  -------------------
[32;1m[Board] [0m2 ||[7;1m [0m|[0;1mp[0m|[0;1mp[0m| |[7;1m [0m| |[7;1m [0m|[0;1mp[0m|| 2
[32;1m[Board] [0m  -------------------
[32;1m[Board] [0m1 ||[0;1mr[0m|[0;1mk[0m| |[7;1m [0m|[0;1mK[0m|[7;1m [0m|[0;1mk[0m|[30;1mQ[0m|| 1
[32;1m[Board] [0m  -------------------
[32;1m[Board] [0m    a b c d e f g h
[32;1m[Board] [0m
[32;1m[Referee] [0mThis is the turn of the Black player...
[32;1m[Game] [0mPlayer's error code: 0
[32;1m[Game] [0mChecking move validity...
[32;1m[Board] [0mInitializing board...
[32;1m[Board] [0mLoading history file `championship/lizzie-iii-blueherring/history.csv`...
[32;1m[Board] [0mLoaded 21 move(s).
[32;1m[Board] [0mLoading move file `championship/lizzie-iii-blueherring/move.csv`...
[32;1m[Board] [0mBlack player is playing h1 to g1.
[32;1m[Board] [0m[5;1mBlack Queen is taking White Knight.[0m
[32;1m[Board] [0m
[32;1m[Board] [0m    a b c d e f g h 
[32;1m[Board] [0m  -------------------
[32;1m[Board] [0m8 ||[30;1mr[0m| |[30;1mb[0m| |[30;1mK[0m|[30;1mb[0m|[7;1m [0m|[30;1mr[0m|| 8
[32;1m[Board] [0m  -------------------
[32;1m[Board] [0m7 ||[30;1mp[0m|[30;1mp[0m|[30;1mp[0m|[30;1mp[0m|[30;1mk[0m|[30;1mp[0m|[30;1mp[0m|[30;1mp[0m|| 7
[32;1m[Board] [0m  -------------------
[32;1m[Board] [0m6 ||[7;1m [0m| |[30;1mk[0m| |[7;1m [0m| |[7;1m [0m| || 6
[32;1m[Board] [0m  -------------------
[32;1m[Board] [0m5 || |[7;1m [0m| |[7;1m [0m| |[7;1m [0m|[0;1mQ[0m|[7;1m [0m|| 5
[32;1m[Board] [0m  -------------------
[32;1m[Board] [0m4 ||[7;1m [0m| |[7;1m [0m| |[7;1m [0m| |[7;1m [0m| || 4
[32;1m[Board] [0m  -------------------
[32;1m[Board] [0m3 ||[0;1mp[0m|[7;1m [0m| |[0;1mp[0m| |[7;1m [0m|[0;1mp[0m|[7;1m [0m|| 3
[32;1m[Board] [0m  -------------------
[32;1m[Board] [0m2 ||[7;1m [0m|[0;1mp[0m|[0;1mp[0m| |[7;1m [0m| |[7;1m [0m|[0;1mp[0m|| 2
[32;1m[Board] [0m  -------------------
[32;1m[Board] [0m1 ||[0;1mr[0m|[0;1mk[0m| |[7;1m [0m|[0;1mK[0m|[7;1m [0m|[30;1mQ[0m|[7;1m [0m|| 1
[32;1m[Board] [0m  -------------------
[32;1m[Board] [0m    a b c d e f g h
[32;1m[Board] [0m
[32;1m[Referee] [0mThis is the turn of the White player...
[32;1m[Board] [0m[33;1m[WARNING][0m [5;1mWhite King in check![0m
[32;1m[Board] [0m[33;1m[WARNING][0m    Threatened by Black Queen (g1)
Input file: championship/lizzie-iii-blueherring/history.csv
Output file: championship/lizzie-iii-blueherring/move.csv
Turn of: white
Succesful move
e2e3
8 | R N B Q K B N R 
7 | P P P P P P P P 
6 | _ _ _ _ _ _ _ _ 
5 | _ _ _ _ _ _ _ _ 
4 | _ _ _ _ _ _ _ _ 
3 | _ _ _ _ P _ _ _ 
2 | P P P P _ P P P 
1 | R N B Q K B N R 
-------------------
  | A B C D E F G H 

Turn of: black
Succesful move
e7e5
8 | R N B Q K B N R 
7 | P P P P _ P P P 
6 | _ _ _ _ _ _ _ _ 
5 | _ _ _ _ P _ _ _ 
4 | _ _ _ _ _ _ _ _ 
3 | _ _ _ _ P _ _ _ 
2 | P P P P _ P P P 
1 | R N B Q K B N R 
-------------------
  | A B C D E F G H 

Turn of: white
Succesful move
d2d3
8 | R N B Q K B N R 
7 | P P P P _ P P P 
6 | _ _ _ _ _ _ _ _ 
5 | _ _ _ _ P _ _ _ 
4 | _ _ _ _ _ _ _ _ 
3 | _ _ _ P P _ _ _ 
2 | P P P _ _ P P P 
1 | R N B Q K B N R 
-------------------
  | A B C D E F G H 

Turn of: black
Succesful move
d8f6
8 | R N B _ K B N R 
7 | P P P P _ P P P 
6 | _ _ _ _ _ Q _ _ 
5 | _ _ _ _ P _ _ _ 
4 | _ _ _ _ _ _ _ _ 
3 | _ _ _ P P _ _ _ 
2 | P P P _ _ P P P 
1 | R N B Q K B N R 
-------------------
  | A B C D E F G H 

Turn of: white
Succesful move
c1d2
8 | R N B _ K B N R 
7 | P P P P _ P P P 
6 | _ _ _ _ _ Q _ _ 
5 | _ _ _ _ P _ _ _ 
4 | _ _ _ _ _ _ _ _ 
3 | _ _ _ P P _ _ _ 
2 | P P P B _ P P P 
1 | R N _ Q K B N R 
-------------------
  | A B C D E F G H 

Turn of: black
Succesful move
b8c6
8 | R _ B _ K B N R 
7 | P P P P _ P P P 
6 | _ _ N _ _ Q _ _ 
5 | _ _ _ _ P _ _ _ 
4 | _ _ _ _ _ _ _ _ 
3 | _ _ _ P P _ _ _ 
2 | P P P B _ P P P 
1 | R N _ Q K B N R 
-------------------
  | A B C D E F G H 

Turn of: white
Succesful move
d1c1
8 | R _ B _ K B N R 
7 | P P P P _ P P P 
6 | _ _ N _ _ Q _ _ 
5 | _ _ _ _ P _ _ _ 
4 | _ _ _ _ _ _ _ _ 
3 | _ _ _ P P _ _ _ 
2 | P P P B _ P P P 
1 | R N Q _ K B N R 
-------------------
  | A B C D E F G H 

Turn of: black
Succesful move
g8e7
8 | R _ B _ K B _ R 
7 | P P P P N P P P 
6 | _ _ N _ _ Q _ _ 
5 | _ _ _ _ P _ _ _ 
4 | _ _ _ _ _ _ _ _ 
3 | _ _ _ P P _ _ _ 
2 | P P P B _ P P P 
1 | R N Q _ K B N R 
-------------------
  | A B C D E F G H 

Turn of: white
Succesful move
f2f4
8 | R _ B _ K B _ R 
7 | P P P P N P P P 
6 | _ _ N _ _ Q _ _ 
5 | _ _ _ _ P _ _ _ 
4 | _ _ _ _ _ P _ _ 
3 | _ _ _ P P _ _ _ 
2 | P P P B _ _ P P 
1 | R N Q _ K B N R 
-------------------
  | A B C D E F G H 

Turn of: black
Succesful move
e5f4
8 | R _ B _ K B _ R 
7 | P P P P N P P P 
6 | _ _ N _ _ Q _ _ 
5 | _ _ _ _ _ _ _ _ 
4 | _ _ _ _ _ P _ _ 
3 | _ _ _ P P _ _ _ 
2 | P P P B _ _ P P 
1 | R N Q _ K B N R 
-------------------
  | A B C D E F G H 

Turn of: white
Succesful move
a2a3
8 | R _ B _ K B _ R 
7 | P P P P N P P P 
6 | _ _ N _ _ Q _ _ 
5 | _ _ _ _ _ _ _ _ 
4 | _ _ _ _ _ P _ _ 
3 | P _ _ P P _ _ _ 
2 | _ P P B _ _ P P 
1 | R N Q _ K B N R 
-------------------
  | A B C D E F G H 

Turn of: black
Succesful move
f4e3
8 | R _ B _ K B _ R 
7 | P P P P N P P P 
6 | _ _ N _ _ Q _ _ 
5 | _ _ _ _ _ _ _ _ 
4 | _ _ _ _ _ _ _ _ 
3 | P _ _ P P _ _ _ 
2 | _ P P B _ _ P P 
1 | R N Q _ K B N R 
-------------------
  | A B C D E F G H 

Turn of: white
Succesful move
g2g3
8 | R _ B _ K B _ R 
7 | P P P P N P P P 
6 | _ _ N _ _ Q _ _ 
5 | _ _ _ _ _ _ _ _ 
4 | _ _ _ _ _ _ _ _ 
3 | P _ _ P P _ P _ 
2 | _ P P B _ _ _ P 
1 | R N Q _ K B N R 
-------------------
  | A B C D E F G H 

Turn of: black
Succesful move
e3d2
8 | R _ B _ K B _ R 
7 | P P P P N P P P 
6 | _ _ N _ _ Q _ _ 
5 | _ _ _ _ _ _ _ _ 
4 | _ _ _ _ _ _ _ _ 
3 | P _ _ P _ _ P _ 
2 | _ P P P _ _ _ P 
1 | R N Q _ K B N R 
-------------------
  | A B C D E F G H 

Turn of: white
Succesful move
e1d1
8 | R _ B _ K B _ R 
7 | P P P P N P P P 
6 | _ _ N _ _ Q _ _ 
5 | _ _ _ _ _ _ _ _ 
4 | _ _ _ _ _ _ _ _ 
3 | P _ _ P _ _ P _ 
2 | _ P P P _ _ _ P 
1 | R N Q K _ B N R 
-------------------
  | A B C D E F G H 

Turn of: black
Succesful move
f6f1
8 | R _ B _ K B _ R 
7 | P P P P N P P P 
6 | _ _ N _ _ _ _ _ 
5 | _ _ _ _ _ _ _ _ 
4 | _ _ _ _ _ _ _ _ 
3 | P _ _ P _ _ P _ 
2 | _ P P P _ _ _ P 
1 | R N Q K _ Q N R 
-------------------
  | A B C D E F G H 

Turn of: white
Succesful move
d1d2
8 | R _ B _ K B _ R 
7 | P P P P N P P P 
6 | _ _ N _ _ _ _ _ 
5 | _ _ _ _ _ _ _ _ 
4 | _ _ _ _ _ _ _ _ 
3 | P _ _ P _ _ P _ 
2 | _ P P K _ _ _ P 
1 | R N Q _ _ Q N R 
-------------------
  | A B C D E F G H 

Turn of: black
Succesful move
f1g2
8 | R _ B _ K B _ R 
7 | P P P P N P P P 
6 | _ _ N _ _ _ _ _ 
5 | _ _ _ _ _ _ _ _ 
4 | _ _ _ _ _ _ _ _ 
3 | P _ _ P _ _ P _ 
2 | _ P P K _ _ Q P 
1 | R N Q _ _ _ N R 
-------------------
  | A B C D E F G H 

Turn of: white
Succesful move
d2e1
8 | R _ B _ K B _ R 
7 | P P P P N P P P 
6 | _ _ N _ _ _ _ _ 
5 | _ _ _ _ _ _ _ _ 
4 | _ _ _ _ _ _ _ _ 
3 | P _ _ P _ _ P _ 
2 | _ P P _ _ _ Q P 
1 | R N Q _ K _ N R 
-------------------
  | A B C D E F G H 

Turn of: black
Succesful move
g2h1
8 | R _ B _ K B _ R 
7 | P P P P N P P P 
6 | _ _ N _ _ _ _ _ 
5 | _ _ _ _ _ _ _ _ 
4 | _ _ _ _ _ _ _ _ 
3 | P _ _ P _ _ P _ 
2 | _ P P _ _ _ _ P 
1 | R N Q _ K _ N Q 
-------------------
  | A B C D E F G H 

Turn of: white
Succesful move
c1g5
8 | R _ B _ K B _ R 
7 | P P P P N P P P 
6 | _ _ N _ _ _ _ _ 
5 | _ _ _ _ _ _ Q _ 
4 | _ _ _ _ _ _ _ _ 
3 | P _ _ P _ _ P _ 
2 | _ P P _ _ _ _ P 
1 | R N _ _ K _ N Q 
-------------------
  | A B C D E F G H 

Turn of: black
Succesful move
h1g1
8 | R _ B _ K B _ R 
7 | P P P P N P P P 
6 | _ _ N _ _ _ _ _ 
5 | _ _ _ _ _ _ Q _ 
4 | _ _ _ _ _ _ _ _ 
3 | P _ _ P _ _ P _ 
2 | _ P P _ _ _ _ P 
1 | R N _ _ K _ Q _ 
-------------------
  | A B C D E F G H 

We are playing as White
Move history:
e2e3
e7e5
d2d3
d8f6
c1d2
b8c6
d1c1
g8e7
f2f4
e5f4
a2a3
f4e3
g2g3
e3d2
e1d1
f6f1
d1d2
f1g2
d2e1
g2h1
c1g5
h1g1
8 | R _ B _ K B _ R 
7 | P P P P N P P P 
6 | _ _ N _ _ _ _ _ 
5 | _ _ _ _ _ _ Q _ 
4 | _ _ _ _ _ _ _ _ 
3 | P _ _ P _ _ P _ 
2 | _ P P _ _ _ _ P 
1 | R N _ _ K _ Q _ 
-------------------
  | A B C D E F G H 

It is white's turn to play.
AI's move: e1d2
Move written: e1d2
[32;1m[Game] [0mPlayer's error code: 0
[32;1m[Game] [0mChecking move validity...
[32;1m[Board] [0mInitializing board...
[32;1m[Board] [0mLoading history file `championship/lizzie-iii-blueherring/history.csv`...
[...]
2 | _ P P _ _ _ _ _ 
1 | R N _ K _ _ _ Q 
-------------------
  | A B C D E F G H 

Turn of: white
Succesful move
d1d2
8 | R _ B _ K B _ R 
7 | P P P P N P P P 
6 | _ _ N _ _ _ _ _ 
5 | _ _ _ _ _ _ Q _ 
4 | _ _ _ _ _ _ _ _ 
3 | P _ _ P _ _ P _ 
2 | _ P P K _ _ _ _ 
1 | R N _ _ _ _ _ Q 
-------------------
  | A B C D E F G H 

Turn of: black
Succesful move
e7d5
8 | R _ B _ K B _ R 
7 | P P P P _ P P P 
6 | _ _ N _ _ _ _ _ 
5 | _ _ _ N _ _ Q _ 
4 | _ _ _ _ _ _ _ _ 
3 | P _ _ P _ _ P _ 
2 | _ P P K _ _ _ _ 
1 | R N _ _ _ _ _ Q 
-------------------
  | A B C D E F G H 

Turn of: white
Succesful move
g5g6
8 | R _ B _ K B _ R 
7 | P P P P _ P P P 
6 | _ _ N _ _ _ Q _ 
5 | _ _ _ N _ _ _ _ 
4 | _ _ _ _ _ _ _ _ 
3 | P _ _ P _ _ P _ 
2 | _ P P K _ _ _ _ 
1 | R N _ _ _ _ _ Q 
-------------------
  | A B C D E F G H 

Turn of: black
Succesful move
f7g6
8 | R _ B _ K B _ R 
7 | P P P P _ _ P P 
6 | _ _ N _ _ _ P _ 
5 | _ _ _ N _ _ _ _ 
4 | _ _ _ _ _ _ _ _ 
3 | P _ _ P _ _ P _ 
2 | _ P P K _ _ _ _ 
1 | R N _ _ _ _ _ Q 
-------------------
  | A B C D E F G H 

Turn of: white
Succesful move
b2b3
8 | R _ B _ K B _ R 
7 | P P P P _ _ P P 
6 | _ _ N _ _ _ P _ 
5 | _ _ _ N _ _ _ _ 
4 | _ _ _ _ _ _ _ _ 
3 | P P _ P _ _ P _ 
2 | _ _ P K _ _ _ _ 
1 | R N _ _ _ _ _ Q 
-------------------
  | A B C D E F G H 

Turn of: black
Succesful move
f8d6
8 | R _ B _ K _ _ R 
7 | P P P P _ _ P P 
6 | _ _ N B _ _ P _ 
5 | _ _ _ N _ _ _ _ 
4 | _ _ _ _ _ _ _ _ 
3 | P P _ P _ _ P _ 
2 | _ _ P K _ _ _ _ 
1 | R N _ _ _ _ _ Q 
-------------------
  | A B C D E F G H 

Turn of: white
Succesful move
b1c3
8 | R _ B _ K _ _ R 
7 | P P P P _ _ P P 
6 | _ _ N B _ _ P _ 
5 | _ _ _ N _ _ _ _ 
4 | _ _ _ _ _ _ _ _ 
3 | P P N P _ _ P _ 
2 | _ _ P K _ _ _ _ 
1 | R _ _ _ _ _ _ Q 
-------------------
  | A B C D E F G H 

Turn of: black
Succesful move
h1h6
8 | R _ B _ K _ _ R 
7 | P P P P _ _ P P 
6 | _ _ N B _ _ P Q 
5 | _ _ _ N _ _ _ _ 
4 | _ _ _ _ _ _ _ _ 
3 | P P N P _ _ P _ 
2 | _ _ P K _ _ _ _ 
1 | R _ _ _ _ _ _ _ 
-------------------
  | A B C D E F G H 

Turn of: white
Succesful move
d2e2
8 | R _ B _ K _ _ R 
7 | P P P P _ _ P P 
6 | _ _ N B _ _ P Q 
5 | _ _ _ N _ _ _ _ 
4 | _ _ _ _ _ _ _ _ 
3 | P P N P _ _ P _ 
2 | _ _ P _ K _ _ _ 
1 | R _ _ _ _ _ _ _ 
-------------------
  | A B C D E F G H 

Turn of: black
Succesful move
d5c3
8 | R _ B _ K _ _ R 
7 | P P P P _ _ P P 
6 | _ _ N B _ _ P Q 
5 | _ _ _ _ _ _ _ _ 
4 | _ _ _ _ _ _ _ _ 
3 | P P N P _ _ P _ 
2 | _ _ P _ K _ _ _ 
1 | R _ _ _ _ _ _ _ 
-------------------
  | A B C D E F G H 

We are playing as White
Move history:
e2e3
e7e5
d2d3
d8f6
c1d2
b8c6
d1c1
g8e7
f2f4
e5f4
a2a3
f4e3
g2g3
e3d2
e1d1
f6f1
d1d2
f1g2
d2e1
g2h1
c1g5
h1g1
e1d2
g1h2
d2d1
h2h1
d1d2
e7d5
g5g6
f7g6
b2b3
f8d6
b1c3
h1h6
d2e2
d5c3
8 | R _ B _ K _ _ R 
7 | P P P P _ _ P P 
6 | _ _ N B _ _ P Q 
5 | _ _ _ _ _ _ _ _ 
4 | _ _ _ _ _ _ _ _ 
3 | P P N P _ _ P _ 
2 | _ _ P _ K _ _ _ 
1 | R _ _ _ _ _ _ _ 
-------------------
  | A B C D E F G H 

It is white's turn to play.
AI's move: e2f3
Move written: e2f3
[32;1m[Game] [0mPlayer's error code: 0
[32;1m[Game] [0mChecking move validity...
[32;1m[Board] [0mInitializing board...
[32;1m[Board] [0mLoading history file `championship/lizzie-iii-blueherring/history.csv`...
[32;1m[Board] [0mLoaded 36 move(s).
[32;1m[Board] [0mLoading move file `championship/lizzie-iii-blueherring/move.csv`...
[32;1m[Board] [0mWhite player is playing e2 to f3.
[32;1m[Board] [0m
[32;1m[Board] [0m    a b c d e f g h 
[32;1m[Board] [0m  -------------------
[32;1m[Board] [0m8 ||[30;1mr[0m| |[30;1mb[0m| |[30;1mK[0m| |[7;1m [0m|[30;1mr[0m|| 8
[32;1m[Board] [0m  -------------------
[32;1m[Board] [0m7 ||[30;1mp[0m|[30;1mp[0m|[30;1mp[0m|[30;1mp[0m| |[7;1m [0m|[30;1mp[0m|[30;1mp[0m|| 7
[32;1m[Board] [0m  -------------------
[32;1m[Board] [0m6 ||[7;1m [0m| |[30;1mk[0m|[30;1mb[0m|[7;1m [0m| |[30;1mp[0m|[30;1mQ[0m|| 6
[32;1m[Board] [0m  -------------------
[32;1m[Board] [0m5 || |[7;1m [0m| |[7;1m [0m| |[7;1m [0m| |[7;1m [0m|| 5
[32;1m[Board] [0m  -------------------
[32;1m[Board] [0m4 ||[7;1m [0m| |[7;1m [0m| |[7;1m [0m| |[7;1m [0m| || 4
[32;1m[Board] [0m  -------------------
[32;1m[Board] [0m3 ||[0;1mp[0m|[0;1mp[0m|[30;1mk[0m|[0;1mp[0m| |[0;1mK[0m|[0;1mp[0m|[7;1m [0m|| 3
[32;1m[Board] [0m  -------------------
[32;1m[Board] [0m2 ||[7;1m [0m| |[0;1mp[0m| |[7;1m [0m| |[7;1m [0m| || 2
[32;1m[Board] [0m  -------------------
[32;1m[Board] [0m1 ||[0;1mr[0m|[7;1m [0m| |[7;1m [0m| |[7;1m [0m| |[7;1m [0m|| 1
[32;1m[Board] [0m  -------------------
[32;1m[Board] [0m    a b c d e f g h
[32;1m[Board] [0m
[32;1m[Referee] [0mThis is the turn of the Black player...
[32;1m[Game] [0mPlayer's error code: 0
[32;1m[Game] [0mChecking move validity...
[32;1m[Board] [0mInitializing board...
[32;1m[Board] [0mLoading history file `championship/lizzie-iii-blueherring/history.csv`...
[32;1m[Board] [0mLoaded 37 move(s).
[32;1m[Board] [0mLoading move file `championship/lizzie-iii-blueherring/move.csv`...
[32;1m[Board] [0mBlack player is playing h6 to d2.
[32;1m[Board] [0m
[32;1m[Board] [0m    a b c d e f g h 
[32;1m[Board] [0m  -------------------
[32;1m[Board] [0m8 ||[30;1mr[0m| |[30;1mb[0m| |[30;1mK[0m| |[7;1m [0m|[30;1mr[0m|| 8
[32;1m[Board] [0m  -------------------
[32;1m[Board] [0m7 ||[30;1mp[0m|[30;1mp[0m|[30;1mp[0m|[30;1mp[0m| |[7;1m [0m|[30;1mp[0m|[30;1mp[0m|| 7
[32;1m[Board] [0m  -------------------
[32;1m[Board] [0m6 ||[7;1m [0m| |[30;1mk[0m|[30;1mb[0m|[7;1m [0m| |[30;1mp[0m| || 6
[32;1m[Board] [0m  -------------------
[32;1m[Board] [0m5 || |[7;1m [0m| |[7;1m [0m| |[7;1m [0m| |[7;1m [0m|| 5
[32;1m[Board] [0m  -------------------
[32;1m[Board] [0m4 ||[7;1m [0m| |[7;1m [0m| |[7;1m [0m| |[7;1m [0m| || 4
[32;1m[Board] [0m  -------------------
[32;1m[Board] [0m3 ||[0;1mp[0m|[0;1mp[0m|[30;1mk[0m|[0;1mp[0m| |[0;1mK[0m|[0;1mp[0m|[7;1m [0m|| 3
[32;1m[Board] [0m  -------------------
[32;1m[Board] [0m2 ||[7;1m [0m| |[0;1mp[0m|[30;1mQ[0m|[7;1m [0m| |[7;1m [0m| || 2
[32;1m[Board] [0m  -------------------
[32;1m[Board] [0m1 ||[0;1mr[0m|[7;1m [0m| |[7;1m [0m| |[7;1m [0m| |[7;1m [0m|| 1
[32;1m[Board] [0m  -------------------
[32;1m[Board] [0m    a b c d e f g h
[32;1m[Board] [0m
[32;1m[Referee] [0mThis is the turn of the White player...
Input file: championship/lizzie-iii-blueherring/history.csv
Output file: championship/lizzie-iii-blueherring/move.csv
Turn of: white
Succesful move
e2e3
8 | R N B Q K B N R 
7 | P P P P P P P P 
6 | _ _ _ _ _ _ _ _ 
5 | _ _ _ _ _ _ _ _ 
4 | _ _ _ _ _ _ _ _ 
3 | _ _ _ _ P _ _ _ 
2 | P P P P _ P P P 
1 | R N B Q K B N R 
-------------------
  | A B C D E F G H 

Turn of: black
Succesful move
e7e5
8 | R N B Q K B N R 
7 | P P P P _ P P P 
6 | _ _ _ _ _ _ _ _ 
5 | _ _ _ _ P _ _ _ 
4 | _ _ _ _ _ _ _ _ 
3 | _ _ _ _ P _ _ _ 
2 | P P P P _ P P P 
1 | R N B Q K B N R 
-------------------
  | A B C D E F G H 

Turn of: white
Succesful move
d2d3
8 | R N B Q K B N R 
7 | P P P P _ P P P 
6 | _ _ _ _ _ _ _ _ 
5 | _ _ _ _ P _ _ _ 
4 | _ _ _ _ _ _ _ _ 
3 | _ _ _ P P _ _ _ 
2 | P P P _ _ P P P 
1 | R N B Q K B N R 
-------------------
  | A B C D E F G H 

Turn of: black
Succesful move
d8f6
8 | R N B _ K B N R 
7 | P P P P _ P P P 
6 | _ _ _ _ _ Q _ _ 
5 | _ _ _ _ P _ _ _ 
4 | _ _ _ _ _ _ _ _ 
3 | _ _ _ P P _ _ _ 
2 | P P P _ _ P P P 
1 | R N B Q K B N R 
-------------------
  | A B C D E F G H 

Turn of: white
Succesful move
c1d2
8 | R N B _ K B N R 
7 | P P P P _ P P P 
6 | _ _ _ _ _ Q _ _ 
5 | _ _ _ _ P _ _ _ 
4 | _ _ _ _ _ _ _ _ 
3 | _ _ _ P P _ _ _ 
2 | P P P B _ P P P 
1 | R N _ Q K B N R 
-------------------
  | A B C D E F G H 

Turn of: black
Succesful move
b8c6
8 | R _ B _ K B N R 
7 | P P P P _ P P P 
6 | _ _ N _ _ Q _ _ 
5 | _ _ _ _ P _ _ _ 
4 | _ _ _ _ _ _ _ _ 
3 | _ _ _ P P _ _ _ 
2 | P P P B _ P P P 
1 | R N _ Q K B N R 
-------------------
  | A B C D E F G H 

Turn of: white
Succesful move
d1c1
8 | R _ B _ K B N R 
7 | P P P P _ P P P 
6 | _ _ N _ _ Q _ _ 
5 | _ _ _ _ P _ _ _ 
4 | _ _ _ _ _ _ _ _ 
3 | _ _ _ P P _ _ _ 
2 | P P P B _ P P P 
1 | R N Q _ K B N R 
-------------------
  | A B C D E F G H 

Turn of: black
Succesful move
g8e7
8 | R _ B _ K B _ R 
7 | P P P P N P P P 
6 | _ _ N _ _ Q _ _ 
5 | _ _ _ _ P _ _ _ 
4 | _ _ _ _ _ _ _ _ 
3 | _ _ _ P P _ _ _ 
2 | P P P B _ P P P 
1 | R N Q _ K B N R 
-------------------
  | A B C D E F G H 

Turn of: white
Succesful move
f2f4
8 | R _ B _ K B _ R 
7 | P P P P N P P P 
6 | _ _ N _ _ Q _ _ 
5 | _ _ _ _ P _ _ _ 
4 | _ _ _ _ _ P _ _ 
3 | _ _ _ P P _ _ _ 
2 | P P P B _ _ P P 
1 | R N Q _ K B N R 
-------------------
  | A B C D E F G H 

Turn of: black
Succesful move
e5f4
8 | R _ B _ K B _ R 
7 | P P P P N P P P 
6 | _ _ N _ _ Q _ _ 
5 | _ _ _ _ _ _ _ _ 
4 | _ _ _ _ _ P _ _ 
3 | _ _ _ P P _ _ _ 
2 | P P P B _ _ P P 
1 | R N Q _ K B N R 
-------------------
  | A B C D E F G H 

Turn of: white
Succesful move
a2a3
8 | R _ B _ K B _ R 
7 | P P P P N P P P 
6 | _ _ N _ _ Q _ _ 
5 | _ _ _ _ _ _ _ _ 
4 | _ _ _ _ _ P _ _ 
3 | P _ _ P P _ _ _ 
2 | _ P P B _ _ P P 
1 | R N Q _ K B N R 
-------------------
  | A B C D E F G H 

Turn of: black
Succesful move
f4e3
8 | R _ B _ K B _ R 
7 | P P P P N P P P 
6 | _ _ N _ _ Q _ _ 
5 | _ _ _ _ _ _ _ _ 
4 | _ _ _ _ _ _ _ _ 
3 | P _ _ P P _ _ _ 
2 | _ P P B _ _ P P 
1 | R N Q _ K B N R 
-------------------
  | A B C D E F G H 

Turn of: white
Succesful move
g2g3
8 | R _ B _ K B _ R 
7 | P P P P N P P P 
6 | _ _ N _ _ Q _ _ 
5 | _ _ _ _ _ _ _ _ 
4 | _ _ _ _ _ _ _ _ 
3 | P _ _ P P _ P _ 
2 | _ P P B _ _ _ P 
1 | R N Q _ K B N R 
-------------------
  | A B C D E F G H 

Turn of: black
Succesful move
e3d2
8 | R _ B _ K B _ R 
7 | P P P P N P P P 
6 | _ _ N _ _ Q _ _ 
5 | _ _ _ _ _ _ _ _ 
4 | _ _ _ _ _ _ _ _ 
3 | P _ _ P _ _ P _ 
2 | _ P P P _ _ _ P 
1 | R N Q _ K B N R 
-------------------
  | A B C D E F G H 

Turn of: white
Succesful move
e1d1
8 | R _ B _ K B _ R 
7 | P P P P N P P P 
6 | _ _ N _ _ Q _ _ 
5 | _ _ _ _ _ _ _ _ 
4 | _ _ _ _ _ _ _ _ 
3 | P _ _ P _ _ P _ 
2 | _ P P P _ _ _ P 
1 | R N Q K _ B N R 
-------------------
  | A B C D E F G H 

Turn of: black
Succesful move
f6f1
8 | R _ B _ K B _ R 
7 | P P P P N P P P 
6 | _ _ N _ _ _ _ _ 
5 | _ _ _ _ _ _ _ _ 
4 | _ _ _ _ _ _ _ _ 
3 | P _ _ P _ _ P _ 
2 | _ P P P _ _ _ P 
1 | R N Q K _ Q N R 
-------------------
  | A B C D E F G H 

Turn of: white
Succesful move
d1d2
8 | R _ B _ K B _ R 
7 | P P P P N P P P 
6 | _ _ N _ _ _ _ _ 
5 | _ _ _ _ _ _ _ _ 
4 | _ _ _ _ _ _ _ _ 
3 | P _ _ P _ _ P _ 
2 | _ P P K _ _ _ P 
1 | R N Q _ _ Q N R 
-------------------
  | A B C D E F G H 

Turn of: black
Succesful move
f1g2
8 | R _ B _ K B _ R 
7 | P P P P N P P P 
6 | _ _ N _ _ _ _ _ 
5 | _ _ _ _ _ _ _ _ 
4 | _ _ _ _ _ _ _ _ 
3 | P _ _ P _ _ P _ 
2 | _ P P K _ _ Q P 
1 | R N Q _ _ _ N R 
-------------------
  | A B C D E F G H 

Turn of: white
Succesful move
d2e1
8 | R _ B _ K B _ R 
7 | P P P P N P P P 
6 | _ _ N _ _ _ _ _ 
5 | _ _ _ _ _ _ _ _ 
4 | _ _ _ _ _ _ _ _ 
3 | P _ _ P _ _ P _ 
2 | _ P P _ _ _ Q P 
1 | R N Q _ K _ N R 
-------------------
  | A B C D E F G H 

Turn of: black
Succesful move
g2h1
8 | R _ B _ K B _ R 
7 | P P P P N P P P 
6 | _ _ N _ _ _ _ _ 
5 | _ _ _ _ _ _ _ _ 
4 | _ _ _ _ _ _ _ _ 
3 | P _ _ P _ _ P _ 
2 | _ P P _ _ _ _ P 
1 | R N Q _ K _ N Q 
-------------------
  | A B C D E F G H 

Turn of: white
Succesful move
c1g5
8 | R _ B _ K B _ R 
7 | P P P P N P P P 
6 | _ _ N _ _ _ _ _ 
5 | _ _ _ _ _ _ Q _ 
4 | _ _ _ _ _ _ _ _ 
3 | P _ _ P _ _ P _ 
2 | _ P P _ _ _ _ P 
1 | R N _ _ K _ N Q 
-------------------
  | A B C D E F G H 

Turn of: black
Succesful move
h1g1
8 | R _ B _ K B _ R 
7 | P P P P N P P P 
6 | _ _ N _ _ _ _ _ 
5 | _ _ _ _ _ _ Q _ 
4 | _ _ _ _ _ _ _ _ 
3 | P _ _ P _ _ P _ 
2 | _ P P _ _ _ _ P 
1 | R N _ _ K _ Q _ 
-------------------
  | A B C D E F G H 

Turn of: white
Succesful move
e1d2
8 | R _ B _ K B _ R 
7 | P P P P N P P P 
6 | _ _ N _ _ _ _ _ 
5 | _ _ _ _ _ _ Q _ 
4 | _ _ _ _ _ _ _ _ 
3 | P _ _ P _ _ P _ 
2 | _ P P K _ _ _ P 
1 | R N _ _ _ _ Q _ 
-------------------
  | A B C D E F G H 

Turn of: black
Succesful move
g1h2
8 | R _ B _ K B _ R 
7 | P P P P N P P P 
6 | _ _ N _ _ _ _ _ 
5 | _ _ _ _ _ _ Q _ 
4 | _ _ _ _ _ _ _ _ 
3 | P _ _ P _ _ P _ 
2 | _ P P K _ _ _ Q 
1 | R N _ _ _ _ _ _ 
-------------------
  | A B C D E F G H 

Turn of: white
Succesful move
d2d1
8 | R _ B _ K B _ R 
7 | P P P P N P P P 
6 | _ _ N _ _ _ _ _ 
5 | _ _ _ _ _ _ Q _ 
4 | _ _ _ _ _ _ _ _ 
3 | P _ _ P _ _ P _ 
2 | _ P P _ _ _ _ Q 
1 | R N _ K _ _ _ _ 
-------------------
  | A B C D E F G H 

Turn of: black
Succesful move
h2h1
8 | R _ B _ K B _ R 
7 | P P P P N P P P 
6 | _ _ N _ _ _ _ _ 
5 | _ _ _ _ _ _ Q _ 
4 | _ _ _ _ _ _ _ _ 
3 | P _ _ P _ _ P _ 
2 | _ P P _ _ _ _ _ 
1 | R N _ K _ _ _ Q 
-------------------
  | A B C D E F G H 

Turn of: white
Succesful move
d1d2
8 | R _ B _ K B _ R 
7 | P P P P N P P P 
6 | _ _ N _ _ _ _ _ 
5 | _ _ _ _ _ _ Q _ 
4 | _ _ _ _ _ _ _ _ 
3 | P _ _ P _ _ P _ 
2 | _ P P K _ _ _ _ 
1 | R N _ _ _ _ _ Q 
-------------------
  | A B C D E F G H 

Turn of: black
Succesful move
e7d5
8 | R _ B _ K B _ R 
7 | P P P P _ P P P 
6 | _ _ N _ _ _ _ _ 
5 | _ _ _ N _ _ Q _ 
4 | _ _ _ _ _ _ _ _ 
3 | P _ _ P _ _ P _ 
2 | _ P P K _ _ _ _ 
1 | R N _ _ _ _ _ Q 
-------------------
  | A B C D E F G H 

Turn of: white
Succesful move
g5g6
8 | R _ B _ K B _ R 
7 | P P P P _ P P P 
6 | _ _ N _ _ _ Q _ 
5 | _ _ _ N _ _ _ _ 
4 | _ _ _ _ _ _ _ _ 
3 | P _ _ P _ _ P _ 
2 | _ P P K _ _ _ _ 
1 | R N _ _ _ _ _ Q 
-------------------
  | A B C D E F G H 

Turn of: black
Succesful move
f7g6
8 | R _ B _ K B _ R 
7 | P P P P _ _ P P 
6 | _ _ N _ _ _ P _ 
5 | _ _ _ N _ _ _ _ 
4 | _ _ _ _ _ _ _ _ 
3 | P _ _ P _ _ P _ 
2 | _ P P K _ _ _ _ 
1 | R N _ _ _ _ _ Q 
-------------------
  | A B C D E F G H 

Turn of: white
Succesful move
b2b3
8 | R _ B _ K B _ R 
7 | P P P P _ _ P P 
6 | _ _ N _ _ _ P _ 
5 | _ _ _ N _ _ _ _ 
4 | _ _ _ _ _ _ _ _ 
3 | P P _ P _ _ P _ 
2 | _ _ P K _ _ _ _ 
1 | R N _ _ _ _ _ Q 
-------------------
  | A B C D E F G H 

Turn of: black
Succesful move
f8d6
8 | R _ B _ K _ _ R 
7 | P P P P _ _ P P 
6 | _ _ N B _ _ P _ 
5 | _ _ _ N _ _ _ _ 
4 | _ _ _ _ _ _ _ _ 
3 | P P _ P _ _ P _ 
2 | _ _ P K _ _ _ _ 
1 | R N _ _ _ _ _ Q 
-------------------
  | A B C D E F G H 

Turn of: white
Succesful move
b1c3
8 | R _ B _ K _ _ R 
7 | P P P P _ _ P P 
6 | _ _ N B _ _ P _ 
5 | _ _ _ N _ _ _ _ 
4 | _ _ _ _ _ _ _ _ 
3 | P P N P _ _ P _ 
2 | _ _ P K _ _ _ _ 
1 | R _ _ _ _ _ _ Q 
-------------------
  | A B C D E F G H 

Turn of: black
Succesful move
h1h6
8 | R _ B _ K _ _ R 
7 | P P P P _ _ P P 
6 | _ _ N B _ _ P Q 
5 | _ _ _ N _ _ _ _ 
4 | _ _ _ _ _ _ _ _ 
3 | P P N P _ _ P _ 
2 | _ _ P K _ _ _ _ 
1 | R _ _ _ _ _ _ _ 
-------------------
  | A B C D E F G H 

Turn of: white
Succesful move
d2e2
8 | R _ B _ K _ _ R 
7 | P P P P _ _ P P 
6 | _ _ N B _ _ P Q 
5 | _ _ _ N _ _ _ _ 
4 | _ _ _ _ _ _ _ _ 
3 | P P N P _ _ P _ 
2 | _ _ P _ K _ _ _ 
1 | R _ _ _ _ _ _ _ 
-------------------
  | A B C D E F G H 

Turn of: black
Succesful move
d5c3
8 | R _ B _ K _ _ R 
7 | P P P P _ _ P P 
6 | _ _ N B _ _ P Q 
5 | _ _ _ _ _ _ _ _ 
4 | _ _ _ _ _ _ _ _ 
3 | P P N P _ _ P _ 
2 | _ _ P _ K _ _ _ 
1 | R _ _ _ _ _ _ _ 
-------------------
  | A B C D E F G H 

Turn of: white
Succesful move
e2f3
8 | R _ B _ K _ _ R 
7 | P P P P _ _ P P 
6 | _ _ N B _ _ P Q 
5 | _ _ _ _ _ _ _ _ 
4 | _ _ _ _ _ _ _ _ 
3 | P P N P _ K P _ 
2 | _ _ P _ _ _ _ _ 
1 | R _ _ _ _ _ _ _ 
-------------------
  | A B C D E F G H 

Turn of: black
Succesful move
h6d2
8 | R _ B _ K _ _ R 
7 | P P P P _ _ P P 
6 | _ _ N B _ _ P _ 
5 | _ _ _ _ _ _ _ _ 
4 | _ _ _ _ _ _ _ _ 
3 | P P N P _ K P _ 
2 | _ _ P Q _ _ _ _ 
1 | R _ _ _ _ _ _ _ 
-------------------
  | A B C D E F G H 

We are playing as White
Move history:
e2e3
e7e5
d2d3
d8f6
c1d2
b8c6
d1c1
g8e7
f2f4
e5f4
a2a3
f4e3
g2g3
e3d2
e1d1
f6f1
d1d2
f1g2
d2e1
g2h1
c1g5
h1g1
e1d2
g1h2
d2d1
h2h1
d1d2
e7d5
g5g6
f7g6
b2b3
f8d6
b1c3
h1h6
d2e2
d5c3
e2f3
h6d2
8 | R _ B _ K _ _ R 
7 | P P P P _ _ P P 
6 | _ _ N B _ _ P _ 
5 | _ _ _ _ _ _ _ _ 
4 | _ _ _ _ _ _ _ _ 
3 | P P N P _ K P _ 
2 | _ _ P Q _ _ _ _ 
1 | R _ _ _ _ _ _ _ 
-------------------
  | A B C D E F G H 

It is white's turn to play.
AI's move: a1b1
Move written: a1b1
[32;1m[Game] [0mPlayer's error code: 0
[32;1m[Game] [0mChecking move validity...
[32;1m[Board] [0mInitializing board...
[32;1m[Board] [0mLoading history file `championship/lizzie-iii-blueherring/history.csv`...
[32;1m[Board] [0mLoaded 38 move(s).
[32;1m[Board] [0mLoading move file `championship/lizzie-iii-blueherring/move.csv`...
[32;1m[Board] [0mWhite player is playing a1 to b1.
[32;1m[Board] [0m
[32;1m[Board] [0m    a b c d e f g h 
[32;1m[Board] [0m  -------------------
[32;1m[Board] [0m8 ||[30;1mr[0m| |[30;1mb[0m| |[30;1mK[0m| |[7;1m [0m|[30;1mr[0m|| 8
[32;1m[Board] [0m  -------------------
[32;1m[Board] [0m7 ||[30;1mp[0m|[30;1mp[0m|[30;1mp[0m|[30;1mp[0m| |[7;1m [0m|[30;1mp[0m|[30;1mp[0m|| 7
[32;1m[Board] [0m  -------------------
[32;1m[Board] [0m6 ||[7;1m [0m| |[30;1mk[0m|[30;1mb[0m|[7;1m [0m| |[30;1mp[0m| || 6
[32;1m[Board] [0m  -------------------
[32;1m[Board] [0m5 || |[7;1m [0m| |[7;1m [0m| |[7;1m [0m| |[7;1m [0m|| 5
[32;1m[Board] [0m  -------------------
[32;1m[Board] [0m4 ||[7;1m [0m| |[7;1m [0m| |[7;1m [0m| |[7;1m [0m| || 4
[32;1m[Board] [0m  -------------------
[32;1m[Board] [0m3 ||[0;1mp[0m|[0;1mp[0m|[30;1mk[0m|[0;1mp[0m| |[0;1mK[0m|[0;1mp[0m|[7;1m [0m|| 3
[32;1m[Board] [0m  -------------------
[32;1m[Board] [0m2 ||[7;1m [0m| |[0;1mp[0m|[30;1mQ[0m|[7;1m [0m| |[7;1m [0m| || 2
[32;1m[Board] [0m  -------------------
[32;1m[Board] [0m1 || |[0;1mr[0m| |[7;1m [0m| |[7;1m [0m| |[7;1m [0m|| 1
[32;1m[Board] [0m  -------------------
[32;1m[Board] [0m    a b c d e f g h
[32;1m[Board] [0m
[32;1m[Referee] [0mThis is the turn of the Black player...
[32;1m[Game] [0mPlayer's error code: 0
[32;1m[Game] [0mChecking move validity...
[32;1m[Board] [0mInitializing board...
[32;1m[Board] [0mLoading history file `championship/lizzie-iii-blueherring/history.csv`...
[32;1m[Board] [0mLoaded 39 move(s).
[32;1m[Board] [0mLoading move file `championship/lizzie-iii-blueherring/move.csv`...
[32;1m[Board] [0mBlack player is playing c6 to e5.
[32;1m[Board] [0m
[32;1m[Board] [0m    a b c d e f g h 
[32;1m[Board] [0m  -------------------
[32;1m[Board] [0m8 ||[30;1mr[0m| |[30;1mb[0m| |[30;1mK[0m| |[7;1m [0m|[30;1mr[0m|| 8
[32;1m[Board] [0m  -------------------
[32;1m[Board] [0m7 ||[30;1mp[0m|[30;1mp[0m|[30;1mp[0m|[30;1mp[0m| |[7;1m [0m|[30;1mp[0m|[30;1mp[0m|| 7
[32;1m[Board] [0m  -------------------
[32;1m[Board] [0m6 ||[7;1m [0m| |[7;1m [0m|[30;1mb[0m|[7;1m [0m| |[30;1mp[0m| || 6
[32;1m[Board] [0m  -------------------
[32;1m[Board] [0m5 || |[7;1m [0m| |[7;1m [0m|[30;1mk[0m|[7;1m [0m| |[7;1m [0m|| 5
[32;1m[Board] [0m  -------------------
[32;1m[Board] [0m4 ||[7;1m [0m| |[7;1m [0m| |[7;1m [0m| |[7;1m [0m| || 4
[32;1m[Board] [0m  -------------------
[32;1m[Board] [0m3 ||[0;1mp[0m|[0;1mp[0m|[30;1mk[0m|[0;1mp[0m| |[0;1mK[0m|[0;1mp[0m|[7;1m [0m|| 3
[32;1m[Board] [0m  -------------------
[32;1m[Board] [0m2 ||[7;1m [0m| |[0;1mp[0m|[30;1mQ[0m|[7;1m [0m| |[7;1m [0m| || 2
[32;1m[Board] [0m  -------------------
[32;1m[Board] [0m1 || |[0;1mr[0m| |[7;1m [0m| |[7;1m [0m| |[7;1m [0m|| 1
[32;1m[Board] [0m  -------------------
[32;1m[Board] [0m    a b c d e f g h
[32;1m[Board] [0m
[32;1m[Referee] [0mThis is the turn of the White player...
[32;1m[Board] [0m[33;1m[WARNING][0m [5;1mWhite King in checkmate![0m
[32;1m[Board] [0m[33;1m[WARNING][0m The Black player wins!
